

        *** GPGPU-Sim Simulator Version 3.2.2  [build gpgpu-sim_git-commit-_modified_] ***


GPGPU-Sim PTX: simulation mode 0 (can change with PTX_SIM_MODE_FUNC environment variable:
               1=functional simulation only, 0=detailed performance simulator)
GPGPU-Sim: Configuration options:

-network_mode                           1 # Interconnection network mode
-inter_config_file   config_fermi_islip.icnt # Interconnection network config file
-gpgpu_ptx_use_cuobjdump                    1 # Use cuobjdump to extract ptx and sass from binaries
-gpgpu_experimental_lib_support                    0 # Try to extract code from cuda libraries [Broken because of unknown cudaGetExportTable]
-gpgpu_ptx_convert_to_ptxplus                    0 # Convert SASS (native ISA) to ptxplus and run ptxplus
-gpgpu_ptx_force_max_capability                   61 # Force maximum compute capability
-gpgpu_ptx_inst_debug_to_file                    0 # Dump executed instructions' debug information to file
-gpgpu_ptx_inst_debug_file       inst_debug.txt # Executed instructions' debug output file
-gpgpu_ptx_inst_debug_thread_uid                    1 # Thread UID for executed instructions' debug output
-gpgpu_simd_model                       1 # 1 = post-dominator
-gpgpu_shader_core_pipeline              1728:36 # shader core pipeline config, i.e., {<nthread>:<warpsize>}
-gpgpu_tex_cache:l1  16:128:32,L:R:m:N:L,F:128:4,128:2 # per-shader L1 texture cache  (READ-ONLY) config  {<nsets>:<bsize>:<assoc>,<rep>:<wr>:<alloc>:<wr_alloc>,<mshr>:<N>:<merge>,<mq>:<rf>}
-gpgpu_const_cache:l1 64:64:2,L:R:f:N:L,A:2:32,4 # per-shader L1 constant memory cache  (READ-ONLY) config  {<nsets>:<bsize>:<assoc>,<rep>:<wr>:<alloc>:<wr_alloc>,<mshr>:<N>:<merge>,<mq>} 
-gpgpu_cache:il1     4:128:4,L:R:f:N:L,A:2:32,4 # shader L1 instruction cache config  {<nsets>:<bsize>:<assoc>,<rep>:<wr>:<alloc>:<wr_alloc>,<mshr>:<N>:<merge>,<mq>} 
-gpgpu_cache:dl1     32:128:4,L:L:m:N:H,A:32:8,8 # per-shader L1 data cache config  {<nsets>:<bsize>:<assoc>,<rep>:<wr>:<alloc>:<wr_alloc>,<mshr>:<N>:<merge>,<mq> | none}
-gpgpu_cache:dl1PrefL1                 none # per-shader L1 data cache config  {<nsets>:<bsize>:<assoc>,<rep>:<wr>:<alloc>:<wr_alloc>,<mshr>:<N>:<merge>,<mq> | none}
-gpgpu_cache:dl1PreShared                 none # per-shader L1 data cache config  {<nsets>:<bsize>:<assoc>,<rep>:<wr>:<alloc>:<wr_alloc>,<mshr>:<N>:<merge>,<mq> | none}
-gmem_skip_L1D                          1 # global memory access skip L1D cache (implements -Xptxas -dlcm=cg, default=no skip)
-gpgpu_perfect_mem                      0 # enable perfect memory mode (no cache miss)
-n_regfile_gating_group                    4 # group of lanes that should be read/written together)
-gpgpu_clock_gated_reg_file                    0 # enable clock gated reg file for power calculations
-gpgpu_clock_gated_lanes                    0 # enable clock gated lanes for power calculations
-gpgpu_shader_registers                65536 # Number of registers per shader core. Limits number of concurrent CTAs. (default 8192)
-gpgpu_shader_cta                       8 # Maximum number of concurrent CTAs in shader (default 8)
-gpgpu_num_cta_barriers                   16 # Maximum number of named barriers per CTA (default 16)
-gpgpu_n_clusters                       5 # number of processing clusters
-gpgpu_n_cores_per_cluster                    1 # number of simd cores per cluster
-gpgpu_n_cluster_ejection_buffer_size                    8 # number of packets in ejection buffer
-gpgpu_n_ldst_response_buffer_size                    2 # number of response packets in ld/st unit ejection buffer
-gpgpu_shmem_size                   16384 # Size of shared memory per shader core (default 16kB)
-gpgpu_shmem_size                   65536 # Size of shared memory per shader core (default 16kB)
-gpgpu_shmem_size_PrefL1                16384 # Size of shared memory per shader core (default 16kB)
-gpgpu_shmem_size_PrefShared                16384 # Size of shared memory per shader core (default 16kB)
-gpgpu_shmem_num_banks                   32 # Number of banks in the shared memory in each shader core (default 16)
-gpgpu_shmem_limited_broadcast                    0 # Limit shared memory to do one broadcast per cycle (default on)
-gpgpu_shmem_warp_parts                    1 # Number of portions a warp is divided into for shared memory bank conflict check 
-gpgpu_warpdistro_shader                   -1 # Specify which shader core to collect the warp size distribution from
-gpgpu_warp_issue_shader                    0 # Specify which shader core to collect the warp issue distribution from
-gpgpu_local_mem_map                    1 # Mapping from local memory space address to simulated GPU physical address space (default = enabled)
-gpgpu_num_reg_banks                   16 # Number of register banks (default = 8)
-gpgpu_reg_bank_use_warp_id                    0 # Use warp ID in mapping registers to banks (default = off)
-gpgpu_operand_collector_num_units_sp                    6 # number of collector units (default = 4)
-gpgpu_operand_collector_num_units_sfu                    8 # number of collector units (default = 4)
-gpgpu_operand_collector_num_units_mem                    2 # number of collector units (default = 2)
-gpgpu_operand_collector_num_units_gen                    0 # number of collector units (default = 0)
-gpgpu_operand_collector_num_in_ports_sp                    2 # number of collector unit in ports (default = 1)
-gpgpu_operand_collector_num_in_ports_sfu                    1 # number of collector unit in ports (default = 1)
-gpgpu_operand_collector_num_in_ports_mem                    1 # number of collector unit in ports (default = 1)
-gpgpu_operand_collector_num_in_ports_gen                    0 # number of collector unit in ports (default = 0)
-gpgpu_operand_collector_num_out_ports_sp                    2 # number of collector unit in ports (default = 1)
-gpgpu_operand_collector_num_out_ports_sfu                    1 # number of collector unit in ports (default = 1)
-gpgpu_operand_collector_num_out_ports_mem                    1 # number of collector unit in ports (default = 1)
-gpgpu_operand_collector_num_out_ports_gen                    0 # number of collector unit in ports (default = 0)
-gpgpu_coalesce_arch                   13 # Coalescing arch (default = 13, anything else is off for now)
-gpgpu_num_sched_per_core                    4 # Number of warp schedulers per core
-gpgpu_max_insn_issue_per_warp                    2 # Max number of instructions that can be issued per warp in one cycle by scheduler
-gpgpu_simt_core_sim_order                    1 # Select the simulation order of cores in a cluster (0=Fix, 1=Round-Robin)
-gpgpu_pipeline_widths        2,1,1,2,1,1,2 # Pipeline widths ID_OC_SP,ID_OC_SFU,ID_OC_MEM,OC_EX_SP,OC_EX_SFU,OC_EX_MEM,EX_WB
-gpgpu_num_sp_units                     8 # Number of SP units (default=1)
-gpgpu_num_sfu_units                   32 # Number of SF units (default=1)
-gpgpu_num_mem_units                    1 # Number if ldst units (default=1) WARNING: not hooked up to anything
-gpgpu_scheduler                      gto # Scheduler configuration: < lrr | gto | two_level_active > If two_level_active:<num_active_warps>:<inner_prioritization>:<outer_prioritization>For complete list of prioritization values see shader.h enum scheduler_prioritization_typeDefault: gto
-gpgpu_concurrent_kernel_sm                    0 # Support concurrent kernels on a SM (default = disabled)
-gpgpu_dram_scheduler                    1 # 0 = fifo, 1 = FR-FCFS (defaul)
-gpgpu_dram_partition_queues              8:8:8:8 # i2$:$2d:d2$:$2i
-l2_ideal                               0 # Use a ideal L2 cache that always hit
-gpgpu_cache:dl2     1024:128:8,L:B:m:W:L,A:32:4,4:0,32 # unified banked L2 data cache config  {<nsets>:<bsize>:<assoc>,<rep>:<wr>:<alloc>:<wr_alloc>,<mshr>:<N>:<merge>,<mq>}
-gpgpu_cache:dl2_texture_only                    0 # L2 cache used for texture only
-gpgpu_n_mem                            2 # number of memory modules (e.g. memory controllers) in gpu
-gpgpu_n_sub_partition_per_mchannel                    1 # number of memory subpartition in each memory module
-gpgpu_n_mem_per_ctrlr                    2 # number of memory chips per memory controller
-gpgpu_memlatency_stat                   14 # track and display latency statistics 0x2 enables MC, 0x4 enables queue logs
-gpgpu_frfcfs_dram_sched_queue_size                   16 # 0 = unlimited (default); # entries per chip
-gpgpu_dram_return_queue_size                  300 # 0 = unlimited (default); # entries per chip
-gpgpu_dram_buswidth                   32 # default = 4 bytes (8 bytes per cycle at DDR)
-gpgpu_dram_burst_length                    8 # Burst length of each DRAM request (default = 4 data bus cycle)
-dram_data_command_freq_ratio                    4 # Frequency ratio between DRAM data bus and command bus (default = 2 times, i.e. DDR)
-gpgpu_dram_timing_opt nbk=16:CCD=2:RRD=6:RCD=12:RAS=28:RP=12:RC=40: CL=12:WL=4:CDLR=5:WR=12:nbkgrp=4:CCDL=3:RTPL=2 # DRAM timing parameters = {nbk:tCCD:tRRD:tRCD:tRAS:tRP:tRC:CL:WL:tCDLR:tWR:nbkgrp:tCCDL:tRTPL}
-rop_latency                          150 # ROP queue latency (default 85)
-dram_latency                         130 # DRAM latency (default 30)
-gpgpu_mem_addr_mapping dramid@8;00000000.00000000.00000000.00000000.0000RRRR.RRRRRRRR.BBBCCCCB.CCSSSSSS # mapping memory address to dram model {dramid@<start bit>;<memory address map>}
-gpgpu_mem_addr_test                    0 # run sweep test to check address mapping for aliased address
-gpgpu_mem_address_mask                    1 # 0 = old addressing mask, 1 = new addressing mask, 2 = new add. mask + flipped bank sel and chip sel bits
-gpuwattch_xml_file  gpuwattch_gtx750Ti.xml # GPUWattch XML file
-power_simulation_enabled                    0 # Turn on power simulator (1=On, 0=Off)
-power_per_cycle_dump                    0 # Dump detailed power output each cycle
-power_trace_enabled                    0 # produce a file for the power trace (1=On, 0=Off)
-power_trace_zlevel                     6 # Compression level of the power trace output log (0=no comp, 9=highest)
-steady_power_levels_enabled                    0 # produce a file for the steady power levels (1=On, 0=Off)
-steady_state_definition                  8:4 # allowed deviation:number of samples
-gpgpu_max_cycle                        0 # terminates gpu simulation early (0 = no limit)
-gpgpu_max_insn                         0 # terminates gpu simulation early (0 = no limit)
-gpgpu_max_cta                          0 # terminates gpu simulation early (0 = no limit)
-gpgpu_runtime_stat                   500 # display runtime statistics such as dram utilization {<freq>:<flag>}
-liveness_message_freq                    1 # Minimum number of seconds between simulation liveness messages (0 = always print)
-gpgpu_flush_l1_cache                    0 # Flush L1 cache at the end of each kernel call
-gpgpu_flush_l2_cache                    0 # Flush L2 cache at the end of each kernel call
-gpgpu_deadlock_detect                    1 # Stop the simulation at deadlock (1=on (default), 0=off)
-gpgpu_ptx_instruction_classification                    0 # if enabled will classify ptx instruction types per kernel (Max 255 kernels now)
-gpgpu_ptx_sim_mode                     0 # Select between Performance (default) or Functional simulation (1)
-gpgpu_clock_domains 1137.0:1137.0:1137.0:2700.0 # Clock Domain Frequencies in MhZ {<Core Clock>:<ICNT Clock>:<L2 Clock>:<DRAM Clock>}
-gpgpu_max_concurrent_kernel                    8 # maximum kernels that can run concurrently on GPU
-gpgpu_cflog_interval                    0 # Interval between each snapshot in control flow logger
-visualizer_enabled                     0 # Turn on visualizer output (1=On, 0=Off)
-visualizer_outputfile                 NULL # Specifies the output log file for visualizer
-visualizer_zlevel                      6 # Compression level of the visualizer output log (0=no comp, 9=highest)
-trace_enabled                          0 # Turn on traces
-trace_components                    none # comma seperated list of traces to enable. Complete list found in trace_streams.tup. Default none
-trace_sampling_core                    0 # The core which is printed using CORE_DPRINTF. Default 0
-trace_sampling_memory_partition                   -1 # The memory partition which is printed using MEMPART_DPRINTF. Default -1 (i.e. all)
-enable_ptx_file_line_stats                    1 # Turn on PTX source line statistic profiling. (1 = On)
-ptx_line_stats_filename gpgpu_inst_stats.txt # Output file for PTX source line statistics.
-gpgpu_kernel_launch_latency                    0 # Kernel launch latency in cycles. Default: 0
-gpgpu_cdp_enabled                      0 # Turn on CDP
-save_embedded_ptx                      0 # saves ptx files embedded in binary as <n>.ptx
-keep                                   0 # keep intermediate files created by GPGPU-Sim when interfacing with external programs
-gpgpu_ptx_save_converted_ptxplus                    0 # Saved converted ptxplus to a file
-ptx_opcode_latency_int       6,12,13,13,210 # Opcode latencies for integers <ADD,MAX,MUL,MAD,DIV>Default 1,1,19,25,145
-ptx_opcode_latency_fp         6,12,6,6,374 # Opcode latencies for single precision floating points <ADD,MAX,MUL,MAD,DIV>Default 1,1,1,1,30
-ptx_opcode_latency_dp         8,19,8,8,330 # Opcode latencies for double precision floating points <ADD,MAX,MUL,MAD,DIV>Default 8,8,8,8,335
-ptx_opcode_initiation_int            1,1,1,1,4 # Opcode initiation intervals for integers <ADD,MAX,MUL,MAD,DIV>Default 1,1,4,4,32
-ptx_opcode_initiation_fp            1,1,1,1,4 # Opcode initiation intervals for single precision floating points <ADD,MAX,MUL,MAD,DIV>Default 1,1,1,1,5
-ptx_opcode_initiation_dp         8,16,8,8,130 # Opcode initiation intervals for double precision floating points <ADD,MAX,MUL,MAD,DIV>Default 8,8,8,8,130
-cdp_latency         7200,8000,100,12000,1600 # CDP API latency <cudaStreamCreateWithFlags, cudaGetParameterBufferV2_init_perWarp, cudaGetParameterBufferV2_perKernel, cudaLaunchDeviceV2_init_perWarp, cudaLaunchDevicV2_perKernel>Default 7200,8000,100,12000,1600
DRAM Timing Options:
nbk                                    16 # number of banks
CCD                                     2 # column to column delay
RRD                                     6 # minimal delay between activation of rows in different banks
RCD                                    12 # row to column delay
RAS                                    28 # time needed to activate row
RP                                     12 # time needed to precharge (deactivate) row
RC                                     40 # row cycle time
CDLR                                    5 # switching from write to read (changes tWTR)
WR                                     12 # last data-in to row precharge
CL                                     12 # CAS latency
WL                                      4 # Write latency
nbkgrp                                  4 # number of bank groups
CCDL                                    3 # column to column delay between accesses to different bank groups
RTPL                                    2 # read to precharge delay between accesses to different bank groups
Total number of memory sub partition = 2
addr_dec_mask[CHIP]  = 0000000000000100 	high:9 low:8
addr_dec_mask[BK]    = 000000000001c200 	high:17 low:9
addr_dec_mask[ROW]   = 000000001ffe0000 	high:29 low:17
addr_dec_mask[COL]   = 0000000000003cff 	high:14 low:0
addr_dec_mask[BURST] = 000000000000003f 	high:6 low:0
sub_partition_id_mask = 0000000000000000
GPGPU-Sim uArch: clock freqs: 1137000000.000000:1137000000.000000:1137000000.000000:2700000000.000000
GPGPU-Sim uArch: clock periods: 0.00000000087950747581:0.00000000087950747581:0.00000000087950747581:0.00000000037037037037
*** Initializing Memory Statistics ***
GPGPU-Sim uArch: interconnect node map (shaderID+MemID to icntID)
GPGPU-Sim uArch: Memory nodes ID start from index: 5
GPGPU-Sim uArch:    0   1
GPGPU-Sim uArch:    2   3
GPGPU-Sim uArch:    4   5
GPGPU-Sim uArch:    6
GPGPU-Sim uArch: interconnect node reverse map (icntID to shaderID+MemID)
GPGPU-Sim uArch: Memory nodes start from ID: 5
GPGPU-Sim uArch:    0   1
GPGPU-Sim uArch:    2   3
GPGPU-Sim uArch:    4   5
GPGPU-Sim uArch:    6
73d3e4db73c9e624fccc29e2a1aa7643  /home/lewis/hwAI/caffe-cuda8.0/.build_release/tools/caffe.bin
73d3e4db73c9e624fccc29e2a1aa7643  /home/lewis/hwAI/caffe-cuda8.0/.build_release/tools/caffe.bin
GPGPU-Sim uArch: performance model initialization complete.
GPGPU-Sim PTX: __cudaRegisterFatBinary, fat_cubin_handle = 1, filename=default
self exe links to: /home/lewis/hwAI/caffe-cuda8.0/.build_release/tools/caffe.bin
Running md5sum using "md5sum /home/lewis/hwAI/caffe-cuda8.0/.build_release/tools/caffe.bin "
Parsing file logcaffe
######### cuobjdump parser ########
## Adding new section ELF
Adding arch: sm_30
Adding identifier: default
## Adding new section ELF
Adding arch: sm_20
Adding identifier: default
## Adding new section ELF
Adding arch: sm_21
Adding identifier: default
## Adding new section ELF
Adding arch: sm_35
Adding identifier: default
## Adding new section ELF
Adding arch: sm_50
Adding identifier: default
## Adding new section ELF
Adding arch: sm_52
Adding identifier: default
## Adding new section ELF
Adding arch: sm_60
Adding identifier: default
## Adding new section PTX
Adding ptx filename: _cuobjdump_1.ptx
Adding arch: sm_61
Adding identifier: default
## Adding new section ELF
Adding arch: sm_61
Adding identifier: default
## Adding new section ELF
Adding arch: sm_30
Adding identifier: default
## Adding new section ELF
Adding arch: sm_20
Adding identifier: default
## Adding new section ELF
Adding arch: sm_21
Adding identifier: default
## Adding new section ELF
Adding arch: sm_35
Adding identifier: default
## Adding new section ELF
Adding arch: sm_50
Adding identifier: default
## Adding new section ELF
Adding arch: sm_52
Adding identifier: default
## Adding new section ELF
Adding arch: sm_60
Adding identifier: default
## Adding new section PTX
Adding ptx filename: _cuobjdump_2.ptx
Adding arch: sm_61
Adding identifier: default
## Adding new section ELF
Adding arch: sm_61
Adding identifier: default
## Adding new section ELF
Adding arch: sm_30
Adding identifier: default
## Adding new section ELF
Adding arch: sm_20
Adding identifier: default
## Adding new section ELF
Adding arch: sm_21
Adding identifier: default
## Adding new section ELF
Adding arch: sm_35
Adding identifier: default
## Adding new section ELF
Adding arch: sm_50
Adding identifier: default
## Adding new section ELF
Adding arch: sm_52
Adding identifier: default
## Adding new section ELF
Adding arch: sm_60
Adding identifier: default
## Adding new section PTX
Adding ptx filename: _cuobjdump_3.ptx
Adding arch: sm_61
Adding identifier: default
## Adding new section ELF
Adding arch: sm_61
Adding identifier: default
## Adding new section ELF
Adding arch: sm_30
Adding identifier: default
## Adding new section ELF
Adding arch: sm_20
Adding identifier: default
## Adding new section ELF
Adding arch: sm_21
Adding identifier: default
## Adding new section ELF
Adding arch: sm_35
Adding identifier: default
## Adding new section ELF
Adding arch: sm_50
Adding identifier: default
## Adding new section ELF
Adding arch: sm_52
Adding identifier: default
## Adding new section ELF
Adding arch: sm_60
Adding identifier: default
## Adding new section PTX
Adding ptx filename: _cuobjdump_4.ptx
Adding arch: sm_61
Adding identifier: default
## Adding new section ELF
Adding arch: sm_61
Adding identifier: default
## Adding new section ELF
Adding arch: sm_30
Adding identifier: default
## Adding new section ELF
Adding arch: sm_20
Adding identifier: default
## Adding new section ELF
Adding arch: sm_21
Adding identifier: default
## Adding new section ELF
Adding arch: sm_35
Adding identifier: default
## Adding new section ELF
Adding arch: sm_50
Adding identifier: default
## Adding new section ELF
Adding arch: sm_52
Adding identifier: default
## Adding new section ELF
Adding arch: sm_60
Adding identifier: default
## Adding new section PTX
Adding ptx filename: _cuobjdump_5.ptx
Adding arch: sm_61
Adding identifier: default
## Adding new section ELF
Adding arch: sm_61
Adding identifier: default
## Adding new section ELF
Adding arch: sm_30
Adding identifier: default
## Adding new section ELF
Adding arch: sm_20
Adding identifier: default
## Adding new section ELF
Adding arch: sm_21
Adding identifier: default
## Adding new section ELF
Adding arch: sm_35
Adding identifier: default
## Adding new section ELF
Adding arch: sm_50
Adding identifier: default
## Adding new section ELF
Adding arch: sm_52
Adding identifier: default
## Adding new section ELF
Adding arch: sm_60
Adding identifier: default
## Adding new section PTX
Adding ptx filename: _cuobjdump_6.ptx
Adding arch: sm_61
Adding identifier: default
## Adding new section ELF
Adding arch: sm_61
Adding identifier: default
## Adding new section ELF
Adding arch: sm_30
Adding identifier: default
## Adding new section ELF
Adding arch: sm_20
Adding identifier: default
## Adding new section ELF
Adding arch: sm_21
Adding identifier: default
## Adding new section ELF
Adding arch: sm_35
Adding identifier: default
## Adding new section ELF
Adding arch: sm_50
Adding identifier: default
## Adding new section ELF
Adding arch: sm_52
Adding identifier: default
## Adding new section ELF
Adding arch: sm_60
Adding identifier: default
## Adding new section PTX
Adding ptx filename: _cuobjdump_7.ptx
Adding arch: sm_61
Adding identifier: default
## Adding new section ELF
Adding arch: sm_61
Adding identifier: default
## Adding new section ELF
Adding arch: sm_30
Adding identifier: default
## Adding new section ELF
Adding arch: sm_20
Adding identifier: default
## Adding new section ELF
Adding arch: sm_21
Adding identifier: default
## Adding new section ELF
Adding arch: sm_35
Adding identifier: default
## Adding new section ELF
Adding arch: sm_50
Adding identifier: default
## Adding new section ELF
Adding arch: sm_52
Adding identifier: default
## Adding new section ELF
Adding arch: sm_60
Adding identifier: default
## Adding new section PTX
Adding ptx filename: _cuobjdump_8.ptx
Adding arch: sm_61
Adding identifier: default
## Adding new section ELF
Adding arch: sm_61
Adding identifier: default
## Adding new section ELF
Adding arch: sm_30
Adding identifier: default
## Adding new section ELF
Adding arch: sm_20
Adding identifier: default
## Adding new section ELF
Adding arch: sm_21
Adding identifier: default
## Adding new section ELF
Adding arch: sm_35
Adding identifier: default
## Adding new section ELF
Adding arch: sm_50
Adding identifier: default
## Adding new section ELF
Adding arch: sm_52
Adding identifier: default
## Adding new section ELF
Adding arch: sm_60
Adding identifier: default
## Adding new section PTX
Adding ptx filename: _cuobjdump_9.ptx
Adding arch: sm_61
Adding identifier: default
## Adding new section ELF
Adding arch: sm_61
Adding identifier: default
## Adding new section ELF
Adding arch: sm_30
Adding identifier: default
## Adding new section ELF
Adding arch: sm_20
Adding identifier: default
## Adding new section ELF
Adding arch: sm_21
Adding identifier: default
## Adding new section ELF
Adding arch: sm_35
Adding identifier: default
## Adding new section ELF
Adding arch: sm_50
Adding identifier: default
## Adding new section ELF
Adding arch: sm_52
Adding identifier: default
## Adding new section ELF
Adding arch: sm_60
Adding identifier: default
## Adding new section PTX
Adding ptx filename: _cuobjdump_10.ptx
Adding arch: sm_61
Adding identifier: default
## Adding new section ELF
Adding arch: sm_61
Adding identifier: default
## Adding new section ELF
Adding arch: sm_30
Adding identifier: default
## Adding new section ELF
Adding arch: sm_20
Adding identifier: default
## Adding new section ELF
Adding arch: sm_21
Adding identifier: default
## Adding new section ELF
Adding arch: sm_35
Adding identifier: default
## Adding new section ELF
Adding arch: sm_50
Adding identifier: default
## Adding new section ELF
Adding arch: sm_52
Adding identifier: default
## Adding new section ELF
Adding arch: sm_60
Adding identifier: default
## Adding new section PTX
Adding ptx filename: _cuobjdump_11.ptx
Adding arch: sm_61
Adding identifier: default
## Adding new section ELF
Adding arch: sm_61
Adding identifier: default
## Adding new section ELF
Adding arch: sm_30
Adding identifier: default
## Adding new section ELF
Adding arch: sm_20
Adding identifier: default
## Adding new section ELF
Adding arch: sm_21
Adding identifier: default
## Adding new section ELF
Adding arch: sm_35
Adding identifier: default
## Adding new section ELF
Adding arch: sm_50
Adding identifier: default
## Adding new section ELF
Adding arch: sm_52
Adding identifier: default
## Adding new section ELF
Adding arch: sm_60
Adding identifier: default
## Adding new section PTX
Adding ptx filename: _cuobjdump_12.ptx
Adding arch: sm_61
Adding identifier: default
## Adding new section ELF
Adding arch: sm_61
Adding identifier: default
## Adding new section ELF
Adding arch: sm_30
Adding identifier: default
## Adding new section ELF
Adding arch: sm_20
Adding identifier: default
## Adding new section ELF
Adding arch: sm_21
Adding identifier: default
## Adding new section ELF
Adding arch: sm_35
Adding identifier: default
## Adding new section ELF
Adding arch: sm_50
Adding identifier: default
## Adding new section ELF
Adding arch: sm_52
Adding identifier: default
## Adding new section ELF
Adding arch: sm_60
Adding identifier: default
## Adding new section PTX
Adding ptx filename: _cuobjdump_13.ptx
Adding arch: sm_61
Adding identifier: default
## Adding new section ELF
Adding arch: sm_61
Adding identifier: default
## Adding new section ELF
Adding arch: sm_30
Adding identifier: default
## Adding new section ELF
Adding arch: sm_20
Adding identifier: default
## Adding new section ELF
Adding arch: sm_21
Adding identifier: default
## Adding new section ELF
Adding arch: sm_35
Adding identifier: default
## Adding new section ELF
Adding arch: sm_50
Adding identifier: default
## Adding new section ELF
Adding arch: sm_52
Adding identifier: default
## Adding new section ELF
Adding arch: sm_60
Adding identifier: default
## Adding new section PTX
Adding ptx filename: _cuobjdump_14.ptx
Adding arch: sm_61
Adding identifier: default
## Adding new section ELF
Adding arch: sm_61
Adding identifier: default
## Adding new section ELF
Adding arch: sm_30
Adding identifier: default
## Adding new section ELF
Adding arch: sm_20
Adding identifier: default
## Adding new section ELF
Adding arch: sm_21
Adding identifier: default
## Adding new section ELF
Adding arch: sm_35
Adding identifier: default
## Adding new section ELF
Adding arch: sm_50
Adding identifier: default
## Adding new section ELF
Adding arch: sm_52
Adding identifier: default
## Adding new section ELF
Adding arch: sm_60
Adding identifier: default
## Adding new section PTX
Adding ptx filename: _cuobjdump_15.ptx
Adding arch: sm_61
Adding identifier: default
## Adding new section ELF
Adding arch: sm_61
Adding identifier: default
## Adding new section ELF
Adding arch: sm_30
Adding identifier: default
## Adding new section ELF
Adding arch: sm_20
Adding identifier: default
## Adding new section ELF
Adding arch: sm_21
Adding identifier: default
## Adding new section ELF
Adding arch: sm_35
Adding identifier: default
## Adding new section ELF
Adding arch: sm_50
Adding identifier: default
## Adding new section ELF
Adding arch: sm_52
Adding identifier: default
## Adding new section ELF
Adding arch: sm_60
Adding identifier: default
## Adding new section PTX
Adding ptx filename: _cuobjdump_16.ptx
Adding arch: sm_61
Adding identifier: default
## Adding new section ELF
Adding arch: sm_61
Adding identifier: default
## Adding new section ELF
Adding arch: sm_30
Adding identifier: default
## Adding new section ELF
Adding arch: sm_20
Adding identifier: default
## Adding new section ELF
Adding arch: sm_21
Adding identifier: default
## Adding new section ELF
Adding arch: sm_35
Adding identifier: default
## Adding new section ELF
Adding arch: sm_50
Adding identifier: default
## Adding new section ELF
Adding arch: sm_52
Adding identifier: default
## Adding new section ELF
Adding arch: sm_60
Adding identifier: default
## Adding new section PTX
Adding ptx filename: _cuobjdump_17.ptx
Adding arch: sm_61
Adding identifier: default
## Adding new section ELF
Adding arch: sm_61
Adding identifier: default
## Adding new section ELF
Adding arch: sm_30
Adding identifier: default
## Adding new section ELF
Adding arch: sm_20
Adding identifier: default
## Adding new section ELF
Adding arch: sm_21
Adding identifier: default
## Adding new section ELF
Adding arch: sm_35
Adding identifier: default
## Adding new section ELF
Adding arch: sm_50
Adding identifier: default
## Adding new section ELF
Adding arch: sm_52
Adding identifier: default
## Adding new section ELF
Adding arch: sm_60
Adding identifier: default
## Adding new section PTX
Adding ptx filename: _cuobjdump_18.ptx
Adding arch: sm_61
Adding identifier: default
## Adding new section ELF
Adding arch: sm_61
Adding identifier: default
## Adding new section ELF
Adding arch: sm_30
Adding identifier: default
## Adding new section ELF
Adding arch: sm_20
Adding identifier: default
## Adding new section ELF
Adding arch: sm_21
Adding identifier: default
## Adding new section ELF
Adding arch: sm_35
Adding identifier: default
## Adding new section ELF
Adding arch: sm_50
Adding identifier: default
## Adding new section ELF
Adding arch: sm_52
Adding identifier: default
## Adding new section ELF
Adding arch: sm_60
Adding identifier: default
## Adding new section PTX
Adding ptx filename: _cuobjdump_19.ptx
Adding arch: sm_61
Adding identifier: default
## Adding new section ELF
Adding arch: sm_61
Adding identifier: default
## Adding new section ELF
Adding arch: sm_30
Adding identifier: default
## Adding new section ELF
Adding arch: sm_20
Adding identifier: default
## Adding new section ELF
Adding arch: sm_21
Adding identifier: default
## Adding new section ELF
Adding arch: sm_35
Adding identifier: default
## Adding new section ELF
Adding arch: sm_50
Adding identifier: default
## Adding new section ELF
Adding arch: sm_52
Adding identifier: default
## Adding new section ELF
Adding arch: sm_60
Adding identifier: default
## Adding new section PTX
Adding ptx filename: _cuobjdump_20.ptx
Adding arch: sm_61
Adding identifier: default
## Adding new section ELF
Adding arch: sm_61
Adding identifier: default
## Adding new section ELF
Adding arch: sm_30
Adding identifier: default
## Adding new section ELF
Adding arch: sm_20
Adding identifier: default
## Adding new section ELF
Adding arch: sm_21
Adding identifier: default
## Adding new section ELF
Adding arch: sm_35
Adding identifier: default
## Adding new section ELF
Adding arch: sm_50
Adding identifier: default
## Adding new section ELF
Adding arch: sm_52
Adding identifier: default
## Adding new section ELF
Adding arch: sm_60
Adding identifier: default
## Adding new section PTX
Adding ptx filename: _cuobjdump_21.ptx
Adding arch: sm_61
Adding identifier: default
## Adding new section ELF
Adding arch: sm_61
Adding identifier: default
## Adding new section ELF
Adding arch: sm_30
Adding identifier: default
## Adding new section ELF
Adding arch: sm_20
Adding identifier: default
## Adding new section ELF
Adding arch: sm_21
Adding identifier: default
## Adding new section ELF
Adding arch: sm_35
Adding identifier: default
## Adding new section ELF
Adding arch: sm_50
Adding identifier: default
## Adding new section ELF
Adding arch: sm_52
Adding identifier: default
## Adding new section ELF
Adding arch: sm_60
Adding identifier: default
## Adding new section PTX
Adding ptx filename: _cuobjdump_22.ptx
Adding arch: sm_61
Adding identifier: default
## Adding new section ELF
Adding arch: sm_61
Adding identifier: default
## Adding new section ELF
Adding arch: sm_30
Adding identifier: default
## Adding new section ELF
Adding arch: sm_20
Adding identifier: default
## Adding new section ELF
Adding arch: sm_21
Adding identifier: default
## Adding new section ELF
Adding arch: sm_35
Adding identifier: default
## Adding new section ELF
Adding arch: sm_50
Adding identifier: default
## Adding new section ELF
Adding arch: sm_52
Adding identifier: default
## Adding new section ELF
Adding arch: sm_60
Adding identifier: default
## Adding new section PTX
Adding ptx filename: _cuobjdump_23.ptx
Adding arch: sm_61
Adding identifier: default
## Adding new section ELF
Adding arch: sm_61
Adding identifier: default
## Adding new section ELF
Adding arch: sm_30
Adding identifier: default
## Adding new section ELF
Adding arch: sm_20
Adding identifier: default
## Adding new section ELF
Adding arch: sm_21
Adding identifier: default
## Adding new section ELF
Adding arch: sm_35
Adding identifier: default
## Adding new section ELF
Adding arch: sm_50
Adding identifier: default
## Adding new section ELF
Adding arch: sm_52
Adding identifier: default
## Adding new section ELF
Adding arch: sm_60
Adding identifier: default
## Adding new section PTX
Adding ptx filename: _cuobjdump_24.ptx
Adding arch: sm_61
Adding identifier: default
## Adding new section ELF
Adding arch: sm_61
Adding identifier: default
## Adding new section ELF
Adding arch: sm_30
Adding identifier: default
## Adding new section ELF
Adding arch: sm_20
Adding identifier: default
## Adding new section ELF
Adding arch: sm_21
Adding identifier: default
## Adding new section ELF
Adding arch: sm_35
Adding identifier: default
## Adding new section ELF
Adding arch: sm_50
Adding identifier: default
## Adding new section ELF
Adding arch: sm_52
Adding identifier: default
## Adding new section ELF
Adding arch: sm_60
Adding identifier: default
## Adding new section PTX
Adding ptx filename: _cuobjdump_25.ptx
Adding arch: sm_61
Adding identifier: default
## Adding new section ELF
Adding arch: sm_61
Adding identifier: default
## Adding new section ELF
Adding arch: sm_30
Adding identifier: default
## Adding new section ELF
Adding arch: sm_20
Adding identifier: default
## Adding new section ELF
Adding arch: sm_21
Adding identifier: default
## Adding new section ELF
Adding arch: sm_35
Adding identifier: default
## Adding new section ELF
Adding arch: sm_50
Adding identifier: default
## Adding new section ELF
Adding arch: sm_52
Adding identifier: default
## Adding new section ELF
Adding arch: sm_60
Adding identifier: default
## Adding new section PTX
Adding ptx filename: _cuobjdump_26.ptx
Adding arch: sm_61
Adding identifier: default
## Adding new section ELF
Adding arch: sm_61
Adding identifier: default
## Adding new section ELF
Adding arch: sm_30
Adding identifier: default
## Adding new section ELF
Adding arch: sm_20
Adding identifier: default
## Adding new section ELF
Adding arch: sm_21
Adding identifier: default
## Adding new section ELF
Adding arch: sm_35
Adding identifier: default
## Adding new section ELF
Adding arch: sm_50
Adding identifier: default
## Adding new section ELF
Adding arch: sm_52
Adding identifier: default
## Adding new section ELF
Adding arch: sm_60
Adding identifier: default
## Adding new section PTX
Adding ptx filename: _cuobjdump_27.ptx
Adding arch: sm_61
Adding identifier: default
## Adding new section ELF
Adding arch: sm_61
Adding identifier: default
## Adding new section ELF
Adding arch: sm_30
Adding identifier: default
## Adding new section ELF
Adding arch: sm_20
Adding identifier: default
## Adding new section ELF
Adding arch: sm_21
Adding identifier: default
## Adding new section ELF
Adding arch: sm_35
Adding identifier: default
## Adding new section ELF
Adding arch: sm_50
Adding identifier: default
## Adding new section ELF
Adding arch: sm_52
Adding identifier: default
## Adding new section ELF
Adding arch: sm_60
Adding identifier: default
## Adding new section PTX
Adding ptx filename: _cuobjdump_28.ptx
Adding arch: sm_61
Adding identifier: default
## Adding new section ELF
Adding arch: sm_61
Adding identifier: default
## Adding new section ELF
Adding arch: sm_30
Adding identifier: default
## Adding new section ELF
Adding arch: sm_20
Adding identifier: default
## Adding new section ELF
Adding arch: sm_21
Adding identifier: default
## Adding new section ELF
Adding arch: sm_35
Adding identifier: default
## Adding new section ELF
Adding arch: sm_50
Adding identifier: default
## Adding new section ELF
Adding arch: sm_52
Adding identifier: default
## Adding new section ELF
Adding arch: sm_60
Adding identifier: default
## Adding new section PTX
Adding ptx filename: _cuobjdump_29.ptx
Adding arch: sm_61
Adding identifier: default
## Adding new section ELF
Adding arch: sm_61
Adding identifier: default
## Adding new section ELF
Adding arch: sm_30
Adding identifier: default
## Adding new section ELF
Adding arch: sm_20
Adding identifier: default
## Adding new section ELF
Adding arch: sm_21
Adding identifier: default
## Adding new section ELF
Adding arch: sm_35
Adding identifier: default
## Adding new section ELF
Adding arch: sm_50
Adding identifier: default
## Adding new section ELF
Adding arch: sm_52
Adding identifier: default
## Adding new section ELF
Adding arch: sm_60
Adding identifier: default
## Adding new section PTX
Adding ptx filename: _cuobjdump_30.ptx
Adding arch: sm_61
Adding identifier: default
## Adding new section ELF
Adding arch: sm_61
Adding identifier: default
## Adding new section ELF
Adding arch: sm_30
Adding identifier: default
## Adding new section ELF
Adding arch: sm_20
Adding identifier: default
## Adding new section ELF
Adding arch: sm_21
Adding identifier: default
## Adding new section ELF
Adding arch: sm_35
Adding identifier: default
## Adding new section ELF
Adding arch: sm_50
Adding identifier: default
## Adding new section ELF
Adding arch: sm_52
Adding identifier: default
## Adding new section ELF
Adding arch: sm_60
Adding identifier: default
## Adding new section PTX
Adding ptx filename: _cuobjdump_31.ptx
Adding arch: sm_61
Adding identifier: default
## Adding new section ELF
Adding arch: sm_61
Adding identifier: default
## Adding new section ELF
Adding arch: sm_30
Adding identifier: default
## Adding new section ELF
Adding arch: sm_20
Adding identifier: default
## Adding new section ELF
Adding arch: sm_21
Adding identifier: default
## Adding new section ELF
Adding arch: sm_35
Adding identifier: default
## Adding new section ELF
Adding arch: sm_50
Adding identifier: default
## Adding new section ELF
Adding arch: sm_52
Adding identifier: default
## Adding new section ELF
Adding arch: sm_60
Adding identifier: default
## Adding new section PTX
Adding ptx filename: _cuobjdump_32.ptx
Adding arch: sm_61
Adding identifier: default
## Adding new section ELF
Adding arch: sm_61
Adding identifier: default
## Adding new section ELF
Adding arch: sm_30
Adding identifier: default
## Adding new section ELF
Adding arch: sm_20
Adding identifier: default
## Adding new section ELF
Adding arch: sm_21
Adding identifier: default
## Adding new section ELF
Adding arch: sm_35
Adding identifier: default
## Adding new section ELF
Adding arch: sm_50
Adding identifier: default
## Adding new section ELF
Adding arch: sm_52
Adding identifier: default
## Adding new section ELF
Adding arch: sm_60
Adding identifier: default
## Adding new section PTX
Adding ptx filename: _cuobjdump_33.ptx
Adding arch: sm_61
Adding identifier: default
## Adding new section ELF
Adding arch: sm_61
Adding identifier: default
## Adding new section ELF
Adding arch: sm_30
Adding identifier: default
## Adding new section ELF
Adding arch: sm_20
Adding identifier: default
## Adding new section ELF
Adding arch: sm_21
Adding identifier: default
## Adding new section ELF
Adding arch: sm_35
Adding identifier: default
## Adding new section ELF
Adding arch: sm_50
Adding identifier: default
## Adding new section ELF
Adding arch: sm_52
Adding identifier: default
## Adding new section ELF
Adding arch: sm_60
Adding identifier: default
## Adding new section PTX
Adding ptx filename: _cuobjdump_34.ptx
Adding arch: sm_61
Adding identifier: default
## Adding new section ELF
Adding arch: sm_61
Adding identifier: default
## Adding new section ELF
Adding arch: sm_30
Adding identifier: default
## Adding new section ELF
Adding arch: sm_20
Adding identifier: default
## Adding new section ELF
Adding arch: sm_21
Adding identifier: default
## Adding new section ELF
Adding arch: sm_35
Adding identifier: default
## Adding new section ELF
Adding arch: sm_50
Adding identifier: default
## Adding new section ELF
Adding arch: sm_52
Adding identifier: default
## Adding new section ELF
Adding arch: sm_60
Adding identifier: default
## Adding new section PTX
Adding ptx filename: _cuobjdump_35.ptx
Adding arch: sm_61
Adding identifier: default
## Adding new section ELF
Adding arch: sm_61
Adding identifier: default
## Adding new section ELF
Adding arch: sm_30
Adding identifier: default
## Adding new section ELF
Adding arch: sm_20
Adding identifier: default
## Adding new section ELF
Adding arch: sm_21
Adding identifier: default
## Adding new section ELF
Adding arch: sm_35
Adding identifier: default
## Adding new section ELF
Adding arch: sm_50
Adding identifier: default
## Adding new section ELF
Adding arch: sm_52
Adding identifier: default
## Adding new section ELF
Adding arch: sm_60
Adding identifier: default
## Adding new section PTX
Adding ptx filename: _cuobjdump_36.ptx
Adding arch: sm_61
Adding identifier: default
## Adding new section ELF
Adding arch: sm_61
Adding identifier: default
## Adding new section ELF
Adding arch: sm_30
Adding identifier: default
## Adding new section ELF
Adding arch: sm_20
Adding identifier: default
## Adding new section ELF
Adding arch: sm_21
Adding identifier: default
## Adding new section ELF
Adding arch: sm_35
Adding identifier: default
## Adding new section ELF
Adding arch: sm_50
Adding identifier: default
## Adding new section ELF
Adding arch: sm_52
Adding identifier: default
## Adding new section ELF
Adding arch: sm_60
Adding identifier: default
## Adding new section PTX
Adding ptx filename: _cuobjdump_37.ptx
Adding arch: sm_61
Adding identifier: default
## Adding new section ELF
Adding arch: sm_61
Adding identifier: default
## Adding new section ELF
Adding arch: sm_30
Adding identifier: default
## Adding new section ELF
Adding arch: sm_20
Adding identifier: default
## Adding new section ELF
Adding arch: sm_21
Adding identifier: default
## Adding new section ELF
Adding arch: sm_35
Adding identifier: default
## Adding new section ELF
Adding arch: sm_50
Adding identifier: default
## Adding new section ELF
Adding arch: sm_52
Adding identifier: default
## Adding new section ELF
Adding arch: sm_60
Adding identifier: default
## Adding new section PTX
Adding ptx filename: _cuobjdump_38.ptx
Adding arch: sm_61
Adding identifier: default
## Adding new section ELF
Adding arch: sm_61
Adding identifier: default
## Adding new section ELF
Adding arch: sm_30
Adding identifier: default
## Adding new section ELF
Adding arch: sm_20
Adding identifier: default
## Adding new section ELF
Adding arch: sm_21
Adding identifier: default
## Adding new section ELF
Adding arch: sm_35
Adding identifier: default
## Adding new section ELF
Adding arch: sm_50
Adding identifier: default
## Adding new section ELF
Adding arch: sm_52
Adding identifier: default
## Adding new section ELF
Adding arch: sm_60
Adding identifier: default
## Adding new section PTX
Adding ptx filename: _cuobjdump_39.ptx
Adding arch: sm_61
Adding identifier: default
## Adding new section ELF
Adding arch: sm_61
Adding identifier: default
## Adding new section ELF
Adding arch: sm_30
Adding identifier: default
## Adding new section ELF
Adding arch: sm_20
Adding identifier: default
## Adding new section ELF
Adding arch: sm_21
Adding identifier: default
## Adding new section ELF
Adding arch: sm_35
Adding identifier: default
## Adding new section ELF
Adding arch: sm_50
Adding identifier: default
## Adding new section ELF
Adding arch: sm_52
Adding identifier: default
## Adding new section ELF
Adding arch: sm_60
Adding identifier: default
## Adding new section PTX
Adding ptx filename: _cuobjdump_40.ptx
Adding arch: sm_61
Adding identifier: default
## Adding new section ELF
Adding arch: sm_61
Adding identifier: default
## Adding new section ELF
Adding arch: sm_30
Adding identifier: default
## Adding new section ELF
Adding arch: sm_20
Adding identifier: default
## Adding new section ELF
Adding arch: sm_21
Adding identifier: default
## Adding new section ELF
Adding arch: sm_35
Adding identifier: default
## Adding new section ELF
Adding arch: sm_50
Adding identifier: default
## Adding new section ELF
Adding arch: sm_52
Adding identifier: default
## Adding new section ELF
Adding arch: sm_60
Adding identifier: default
## Adding new section PTX
Adding ptx filename: _cuobjdump_41.ptx
Adding arch: sm_61
Adding identifier: default
## Adding new section ELF
Adding arch: sm_61
Adding identifier: default
## Adding new section ELF
Adding arch: sm_30
Adding identifier: default
## Adding new section ELF
Adding arch: sm_20
Adding identifier: default
## Adding new section ELF
Adding arch: sm_21
Adding identifier: default
## Adding new section ELF
Adding arch: sm_35
Adding identifier: default
## Adding new section ELF
Adding arch: sm_50
Adding identifier: default
## Adding new section ELF
Adding arch: sm_52
Adding identifier: default
## Adding new section ELF
Adding arch: sm_60
Adding identifier: default
## Adding new section PTX
Adding ptx filename: _cuobjdump_42.ptx
Adding arch: sm_61
Adding identifier: default
## Adding new section ELF
Adding arch: sm_61
Adding identifier: default
## Adding new section ELF
Adding arch: sm_30
Adding identifier: default
## Adding new section ELF
Adding arch: sm_20
Adding identifier: default
## Adding new section ELF
Adding arch: sm_21
Adding identifier: default
## Adding new section ELF
Adding arch: sm_35
Adding identifier: default
## Adding new section ELF
Adding arch: sm_50
Adding identifier: default
## Adding new section ELF
Adding arch: sm_52
Adding identifier: default
## Adding new section ELF
Adding arch: sm_60
Adding identifier: default
## Adding new section PTX
Adding ptx filename: _cuobjdump_43.ptx
Adding arch: sm_61
Adding identifier: default
## Adding new section ELF
Adding arch: sm_61
Adding identifier: default
## Adding new section ELF
Adding arch: sm_30
Adding identifier: default
## Adding new section ELF
Adding arch: sm_20
Adding identifier: default
## Adding new section ELF
Adding arch: sm_21
Adding identifier: default
## Adding new section ELF
Adding arch: sm_35
Adding identifier: default
## Adding new section ELF
Adding arch: sm_50
Adding identifier: default
## Adding new section ELF
Adding arch: sm_52
Adding identifier: default
## Adding new section ELF
Adding arch: sm_60
Adding identifier: default
## Adding new section PTX
Adding ptx filename: _cuobjdump_44.ptx
Adding arch: sm_61
Adding identifier: default
## Adding new section ELF
Adding arch: sm_61
Adding identifier: default
## Adding new section ELF
Adding arch: sm_30
Adding identifier: default
## Adding new section ELF
Adding arch: sm_20
Adding identifier: default
## Adding new section ELF
Adding arch: sm_21
Adding identifier: default
## Adding new section ELF
Adding arch: sm_35
Adding identifier: default
## Adding new section ELF
Adding arch: sm_50
Adding identifier: default
## Adding new section ELF
Adding arch: sm_52
Adding identifier: default
## Adding new section ELF
Adding arch: sm_60
Adding identifier: default
## Adding new section PTX
Adding ptx filename: _cuobjdump_45.ptx
Adding arch: sm_61
Adding identifier: default
## Adding new section ELF
Adding arch: sm_61
Adding identifier: default
## Adding new section ELF
Adding arch: sm_30
Adding identifier: default
## Adding new section ELF
Adding arch: sm_20
Adding identifier: default
## Adding new section ELF
Adding arch: sm_21
Adding identifier: default
## Adding new section ELF
Adding arch: sm_35
Adding identifier: default
## Adding new section ELF
Adding arch: sm_50
Adding identifier: default
## Adding new section ELF
Adding arch: sm_52
Adding identifier: default
## Adding new section ELF
Adding arch: sm_60
Adding identifier: default
## Adding new section PTX
Adding ptx filename: _cuobjdump_46.ptx
Adding arch: sm_61
Adding identifier: default
## Adding new section ELF
Adding arch: sm_61
Adding identifier: default
## Adding new section ELF
Adding arch: sm_30
Adding identifier: default
## Adding new section ELF
Adding arch: sm_20
Adding identifier: default
## Adding new section ELF
Adding arch: sm_21
Adding identifier: default
## Adding new section ELF
Adding arch: sm_35
Adding identifier: default
## Adding new section ELF
Adding arch: sm_50
Adding identifier: default
## Adding new section ELF
Adding arch: sm_52
Adding identifier: default
## Adding new section ELF
Adding arch: sm_60
Adding identifier: default
## Adding new section PTX
Adding ptx filename: _cuobjdump_47.ptx
Adding arch: sm_61
Adding identifier: default
## Adding new section ELF
Adding arch: sm_61
Adding identifier: default
## Adding new section ELF
Adding arch: sm_30
Adding identifier: default
## Adding new section ELF
Adding arch: sm_20
Adding identifier: default
## Adding new section ELF
Adding arch: sm_21
Adding identifier: default
## Adding new section ELF
Adding arch: sm_35
Adding identifier: default
## Adding new section ELF
Adding arch: sm_50
Adding identifier: default
## Adding new section ELF
Adding arch: sm_52
Adding identifier: default
## Adding new section ELF
Adding arch: sm_60
Adding identifier: default
## Adding new section PTX
Adding ptx filename: _cuobjdump_48.ptx
Adding arch: sm_61
Adding identifier: default
## Adding new section ELF
Adding arch: sm_61
Adding identifier: default
## Adding new section ELF
Adding arch: sm_30
Adding identifier: default
## Adding new section ELF
Adding arch: sm_20
Adding identifier: default
## Adding new section ELF
Adding arch: sm_21
Adding identifier: default
## Adding new section ELF
Adding arch: sm_35
Adding identifier: default
## Adding new section ELF
Adding arch: sm_50
Adding identifier: default
## Adding new section ELF
Adding arch: sm_52
Adding identifier: default
## Adding new section ELF
Adding arch: sm_60
Adding identifier: default
## Adding new section PTX
Adding ptx filename: _cuobjdump_49.ptx
Adding arch: sm_61
Adding identifier: default
## Adding new section ELF
Adding arch: sm_61
Adding identifier: default
## Adding new section ELF
Adding arch: sm_30
Adding identifier: default
## Adding new section ELF
Adding arch: sm_20
Adding identifier: default
## Adding new section ELF
Adding arch: sm_21
Adding identifier: default
## Adding new section ELF
Adding arch: sm_35
Adding identifier: default
## Adding new section ELF
Adding arch: sm_50
Adding identifier: default
## Adding new section ELF
Adding arch: sm_52
Adding identifier: default
## Adding new section ELF
Adding arch: sm_60
Adding identifier: default
## Adding new section PTX
Adding ptx filename: _cuobjdump_50.ptx
Adding arch: sm_61
Adding identifier: default
## Adding new section ELF
Adding arch: sm_61
Adding identifier: default
## Adding new section ELF
Adding arch: sm_30
Adding identifier: default
## Adding new section ELF
Adding arch: sm_20
Adding identifier: default
## Adding new section ELF
Adding arch: sm_21
Adding identifier: default
## Adding new section ELF
Adding arch: sm_35
Adding identifier: default
## Adding new section ELF
Adding arch: sm_50
Adding identifier: default
## Adding new section ELF
Adding arch: sm_52
Adding identifier: default
## Adding new section ELF
Adding arch: sm_60
Adding identifier: default
## Adding new section PTX
Adding ptx filename: _cuobjdump_51.ptx
Adding arch: sm_61
Adding identifier: default
## Adding new section ELF
Adding arch: sm_61
Adding identifier: default
## Adding new section ELF
Adding arch: sm_30
Adding identifier: default
## Adding new section ELF
Adding arch: sm_20
Adding identifier: default
## Adding new section ELF
Adding arch: sm_21
Adding identifier: default
## Adding new section ELF
Adding arch: sm_35
Adding identifier: default
## Adding new section ELF
Adding arch: sm_50
Adding identifier: default
## Adding new section ELF
Adding arch: sm_52
Adding identifier: default
## Adding new section ELF
Adding arch: sm_60
Adding identifier: default
## Adding new section PTX
Adding ptx filename: _cuobjdump_52.ptx
Adding arch: sm_61
Adding identifier: default
## Adding new section ELF
Adding arch: sm_61
Adding identifier: default
## Adding new section ELF
Adding arch: sm_30
Adding identifier: default
## Adding new section ELF
Adding arch: sm_20
Adding identifier: default
## Adding new section ELF
Adding arch: sm_21
Adding identifier: default
## Adding new section ELF
Adding arch: sm_35
Adding identifier: default
## Adding new section ELF
Adding arch: sm_50
Adding identifier: default
## Adding new section ELF
Adding arch: sm_52
Adding identifier: default
## Adding new section ELF
Adding arch: sm_60
Adding identifier: default
## Adding new section PTX
Adding ptx filename: _cuobjdump_53.ptx
Adding arch: sm_61
Adding identifier: default
## Adding new section ELF
Adding arch: sm_61
Adding identifier: default
## Adding new section ELF
Adding arch: sm_30
Adding identifier: default
## Adding new section ELF
Adding arch: sm_20
Adding identifier: default
## Adding new section ELF
Adding arch: sm_21
Adding identifier: default
## Adding new section ELF
Adding arch: sm_35
Adding identifier: default
## Adding new section ELF
Adding arch: sm_50
Adding identifier: default
## Adding new section ELF
Adding arch: sm_52
Adding identifier: default
## Adding new section ELF
Adding arch: sm_60
Adding identifier: default
## Adding new section PTX
Adding ptx filename: _cuobjdump_54.ptx
Adding arch: sm_61
Adding identifier: default
## Adding new section ELF
Adding arch: sm_61
Adding identifier: default
## Adding new section ELF
Adding arch: sm_30
Adding identifier: default
## Adding new section ELF
Adding arch: sm_20
Adding identifier: default
## Adding new section ELF
Adding arch: sm_21
Adding identifier: default
## Adding new section ELF
Adding arch: sm_35
Adding identifier: default
## Adding new section ELF
Adding arch: sm_50
Adding identifier: default
## Adding new section ELF
Adding arch: sm_52
Adding identifier: default
## Adding new section ELF
Adding arch: sm_60
Adding identifier: default
## Adding new section PTX
Adding ptx filename: _cuobjdump_55.ptx
Adding arch: sm_61
Adding identifier: default
## Adding new section ELF
Adding arch: sm_61
Adding identifier: default
## Adding new section ELF
Adding arch: sm_30
Adding identifier: default
## Adding new section ELF
Adding arch: sm_20
Adding identifier: default
## Adding new section ELF
Adding arch: sm_21
Adding identifier: default
## Adding new section ELF
Adding arch: sm_35
Adding identifier: default
## Adding new section ELF
Adding arch: sm_50
Adding identifier: default
## Adding new section ELF
Adding arch: sm_52
Adding identifier: default
## Adding new section ELF
Adding arch: sm_60
Adding identifier: default
## Adding new section PTX
Adding ptx filename: _cuobjdump_56.ptx
Adding arch: sm_61
Adding identifier: default
## Adding new section ELF
Adding arch: sm_61
Adding identifier: default
## Adding new section ELF
Adding arch: sm_30
Adding identifier: default
## Adding new section ELF
Adding arch: sm_20
Adding identifier: default
## Adding new section ELF
Adding arch: sm_21
Adding identifier: default
## Adding new section ELF
Adding arch: sm_35
Adding identifier: default
## Adding new section ELF
Adding arch: sm_50
Adding identifier: default
## Adding new section ELF
Adding arch: sm_52
Adding identifier: default
## Adding new section ELF
Adding arch: sm_60
Adding identifier: default
## Adding new section PTX
Adding ptx filename: _cuobjdump_57.ptx
Adding arch: sm_61
Adding identifier: default
## Adding new section ELF
Adding arch: sm_61
Adding identifier: default
## Adding new section ELF
Adding arch: sm_30
Adding identifier: default
## Adding new section ELF
Adding arch: sm_20
Adding identifier: default
## Adding new section ELF
Adding arch: sm_21
Adding identifier: default
## Adding new section ELF
Adding arch: sm_35
Adding identifier: default
## Adding new section ELF
Adding arch: sm_50
Adding identifier: default
## Adding new section ELF
Adding arch: sm_52
Adding identifier: default
## Adding new section ELF
Adding arch: sm_60
Adding identifier: default
## Adding new section PTX
Adding ptx filename: _cuobjdump_58.ptx
Adding arch: sm_61
Adding identifier: default
## Adding new section ELF
Adding arch: sm_61
Adding identifier: default
## Adding new section ELF
Adding arch: sm_30
Adding identifier: default
## Adding new section ELF
Adding arch: sm_20
Adding identifier: default
## Adding new section ELF
Adding arch: sm_21
Adding identifier: default
## Adding new section ELF
Adding arch: sm_35
Adding identifier: default
## Adding new section ELF
Adding arch: sm_50
Adding identifier: default
## Adding new section ELF
Adding arch: sm_52
Adding identifier: default
## Adding new section ELF
Adding arch: sm_60
Adding identifier: default
## Adding new section PTX
Adding ptx filename: _cuobjdump_59.ptx
Adding arch: sm_61
Adding identifier: default
## Adding new section ELF
Adding arch: sm_61
Adding identifier: default
## Adding new section ELF
Adding arch: sm_30
Adding identifier: default
## Adding new section ELF
Adding arch: sm_20
Adding identifier: default
## Adding new section ELF
Adding arch: sm_21
Adding identifier: default
## Adding new section ELF
Adding arch: sm_35
Adding identifier: default
## Adding new section ELF
Adding arch: sm_50
Adding identifier: default
## Adding new section ELF
Adding arch: sm_52
Adding identifier: default
## Adding new section ELF
Adding arch: sm_60
Adding identifier: default
## Adding new section PTX
Adding ptx filename: _cuobjdump_60.ptx
Adding arch: sm_61
Adding identifier: default
## Adding new section ELF
Adding arch: sm_61

Adding identifier: default
Done parsing!!!
GPGPU-Sim PTX: __cudaRegisterFunction _Z7conv5_3IdEvPT_PKS0_S3_S3_ : hostFun 0x0x7fa410c3afe4, fat_cubin_handle = 1
WARNING: No guarantee that PTX will be parsed for SM version 61
GPGPU-Sim PTX: allocating global region for "_ZTVSt9basic_iosIcSt11char_traitsIcEE" from 0x100 to 0x120 (global memory space)
GPGPU-Sim PTX: allocating global region for "_ZTVSt15basic_streambufIcSt11char_traitsIcEE" from 0x180 to 0x200 (global memory space)
GPGPU-Sim PTX: allocating global region for "_ZTTSo" from 0x200 to 0x208 (global memory space)
GPGPU-Sim PTX: allocating global region for "_ZTVNSt7__cxx1115basic_stringbufIcSt11char_traitsIcESaIcEEE" from 0x280 to 0x300 (global memory space)
GPGPU-Sim PTX: allocating global region for "_ZTTNSt7__cxx1119basic_ostringstreamIcSt11char_traitsIcESaIcEEE" from 0x300 to 0x308 (global memory space)
GPGPU-Sim PTX: instruction assembly for function '_ZN5caffe9BRForwardIfEEviiPKT_S3_PS1_'...   done.
GPGPU-Sim PTX: finding reconvergence points for '_ZN5caffe9BRForwardIfEEviiPKT_S3_PS1_'...
GPGPU-Sim PTX: Finding dominators for '_ZN5caffe9BRForwardIfEEviiPKT_S3_PS1_'...
GPGPU-Sim PTX: Finding immediate dominators for '_ZN5caffe9BRForwardIfEEviiPKT_S3_PS1_'...
GPGPU-Sim PTX: Finding postdominators for '_ZN5caffe9BRForwardIfEEviiPKT_S3_PS1_'...
GPGPU-Sim PTX: Finding immediate postdominators for '_ZN5caffe9BRForwardIfEEviiPKT_S3_PS1_'...
GPGPU-Sim PTX: pre-decoding instructions for '_ZN5caffe9BRForwardIfEEviiPKT_S3_PS1_'...
opcode: 34 space1: 4 space2: 4
GPGPU-Sim PTX: reconvergence points for _ZN5caffe9BRForwardIfEEviiPKT_S3_PS1_...
GPGPU-Sim PTX:  1 (potential) branch divergence @  PC=0x050 (_1.ptx:43) @%p1 bra BB0_3;
GPGPU-Sim PTX:    immediate post dominator      @  PC=0x100 (_1.ptx:70) ret;
GPGPU-Sim PTX:  2 (potential) branch divergence @  PC=0x0f8 (_1.ptx:67) @%p2 bra BB0_2;
GPGPU-Sim PTX:    immediate post dominator      @  PC=0x100 (_1.ptx:70) ret;
GPGPU-Sim PTX: ... end of reconvergence points for _ZN5caffe9BRForwardIfEEviiPKT_S3_PS1_
opcode: 34 space1: 4 space2: 4
opcode: 34 space1: 4 space2: 4
opcode: 34 space1: 4 space2: 4
opcode: 34 space1: 4 space2: 4
opcode: 44 space1: 0 space2: 0
opcode: 44 space1: 0 space2: 0
opcode: 44 space1: 0 space2: 0
opcode: 38 space1: 0 space2: 0
opcode: 66 space1: 0 space2: 0
opcode: 18 space1: 0 space2: 0
opcode: 28 space1: 10 space2: 10
opcode: 28 space1: 10 space2: 10
opcode: 28 space1: 10 space2: 10
opcode: 44 space1: 0 space2: 0
opcode: 46 space1: 0 space2: 0
opcode: 29 space1: 0 space2: 0
opcode: 46 space1: 0 space2: 0
opcode: 8 space1: 0 space2: 0
opcode: 34 space1: 10 space2: 10
opcode: 27 space1: 0 space2: 0
opcode: 60 space1: 0 space2: 0
opcode: 38 space1: 0 space2: 0
opcode: 46 space1: 0 space2: 0
opcode: 8 space1: 0 space2: 0
opcode: 34 space1: 10 space2: 10
opcode: 46 space1: 0 space2: 0
opcode: 8 space1: 0 space2: 0
opcode: 75 space1: 10 space2: 10
opcode: 8 space1: 0 space2: 0
opcode: 66 space1: 0 space2: 0
opcode: 18 space1: 0 space2: 0
opcode: 61 space1: 0 space2: 0
GPGPU-Sim PTX: ... done pre-decoding instructions for '_ZN5caffe9BRForwardIfEEviiPKT_S3_PS1_'.
GPGPU-Sim PTX: instruction assembly for function '_ZN5caffe10BRBackwardIfEEviiPKT_S3_S3_S3_PS1_'...   done.
GPGPU-Sim PTX: finding reconvergence points for '_ZN5caffe10BRBackwardIfEEviiPKT_S3_S3_S3_PS1_'...
GPGPU-Sim PTX: Finding dominators for '_ZN5caffe10BRBackwardIfEEviiPKT_S3_S3_S3_PS1_'...
GPGPU-Sim PTX: Finding immediate dominators for '_ZN5caffe10BRBackwardIfEEviiPKT_S3_S3_S3_PS1_'...
GPGPU-Sim PTX: Finding postdominators for '_ZN5caffe10BRBackwardIfEEviiPKT_S3_S3_S3_PS1_'...
GPGPU-Sim PTX: Finding immediate postdominators for '_ZN5caffe10BRBackwardIfEEviiPKT_S3_S3_S3_PS1_'...
GPGPU-Sim PTX: pre-decoding instructions for '_ZN5caffe10BRBackwardIfEEviiPKT_S3_S3_S3_PS1_'...
opcode: 34 space1: 4 space2: 4
GPGPU-Sim PTX: reconvergence points for _ZN5caffe10BRBackwardIfEEviiPKT_S3_S3_S3_PS1_...
GPGPU-Sim PTX:  1 (potential) branch divergence @  PC=0x168 (_1.ptx:102) @%p1 bra BB1_6;
GPGPU-Sim PTX:    immediate post dominator      @  PC=0x2b8 (_1.ptx:154) ret;
GPGPU-Sim PTX:  2 (potential) branch divergence @  PC=0x210 (_1.ptx:126) @%p2 bra BB1_5;
GPGPU-Sim PTX:    immediate post dominator      @  PC=0x2a0 (_1.ptx:149) add.s32 %r21, %r3, %r21;
GPGPU-Sim PTX:  3 (potential) branch divergence @  PC=0x298 (_1.ptx:146) @%p3 bra BB1_4;
GPGPU-Sim PTX:    immediate post dominator      @  PC=0x2a0 (_1.ptx:149) add.s32 %r21, %r3, %r21;
GPGPU-Sim PTX:  4 (potential) branch divergence @  PC=0x2b0 (_1.ptx:151) @%p4 bra BB1_2;
GPGPU-Sim PTX:    immediate post dominator      @  PC=0x2b8 (_1.ptx:154) ret;
GPGPU-Sim PTX: ... end of reconvergence points for _ZN5caffe10BRBackwardIfEEviiPKT_S3_S3_S3_PS1_
opcode: 34 space1: 4 space2: 4
opcode: 34 space1: 4 space2: 4
opcode: 34 space1: 4 space2: 4
opcode: 34 space1: 4 space2: 4
opcode: 34 space1: 4 space2: 4
opcode: 34 space1: 4 space2: 4
opcode: 44 space1: 0 space2: 0
opcode: 44 space1: 0 space2: 0
opcode: 44 space1: 0 space2: 0
opcode: 38 space1: 0 space2: 0
opcode: 66 space1: 0 space2: 0
opcode: 18 space1: 0 space2: 0
opcode: 28 space1: 10 space2: 10
opcode: 28 space1: 10 space2: 10
opcode: 28 space1: 10 space2: 10
opcode: 28 space1: 10 space2: 10
opcode: 28 space1: 10 space2: 10
opcode: 44 space1: 0 space2: 0
opcode: 46 space1: 0 space2: 0
opcode: 46 space1: 0 space2: 0
opcode: 8 space1: 0 space2: 0
opcode: 44 space1: 0 space2: 0
opcode: 75 space1: 10 space2: 10
opcode: 29 space1: 0 space2: 0
opcode: 46 space1: 0 space2: 0
opcode: 8 space1: 0 space2: 0
opcode: 34 space1: 10 space2: 10
opcode: 27 space1: 0 space2: 0
opcode: 8 space1: 0 space2: 0
opcode: 34 space1: 10 space2: 10
opcode: 27 space1: 0 space2: 0
opcode: 66 space1: 0 space2: 0
opcode: 18 space1: 0 space2: 0
opcode: 8 space1: 0 space2: 0
opcode: 60 space1: 0 space2: 0
opcode: 46 space1: 0 space2: 0
opcode: 8 space1: 0 space2: 0
opcode: 44 space1: 0 space2: 0
opcode: 34 space1: 10 space2: 10
opcode: 27 space1: 0 space2: 0
opcode: 38 space1: 0 space2: 0
opcode: 46 space1: 0 space2: 0
opcode: 8 space1: 0 space2: 0
opcode: 34 space1: 10 space2: 10
opcode: 8 space1: 0 space2: 0
opcode: 75 space1: 10 space2: 10
opcode: 8 space1: 0 space2: 0
opcode: 8 space1: 0 space2: 0
opcode: 66 space1: 0 space2: 0
opcode: 18 space1: 0 space2: 0
opcode: 8 space1: 0 space2: 0
opcode: 66 space1: 0 space2: 0
opcode: 18 space1: 0 space2: 0
opcode: 61 space1: 0 space2: 0
GPGPU-Sim PTX: ... done pre-decoding instructions for '_ZN5caffe10BRBackwardIfEEviiPKT_S3_S3_S3_PS1_'.
GPGPU-Sim PTX: instruction assembly for function '_ZN5caffe9BRForwardIdEEviiPKT_S3_PS1_'...   done.
GPGPU-Sim PTX: finding reconvergence points for '_ZN5caffe9BRForwardIdEEviiPKT_S3_PS1_'...
GPGPU-Sim PTX: Finding dominators for '_ZN5caffe9BRForwardIdEEviiPKT_S3_PS1_'...
GPGPU-Sim PTX: Finding immediate dominators for '_ZN5caffe9BRForwardIdEEviiPKT_S3_PS1_'...
GPGPU-Sim PTX: Finding postdominators for '_ZN5caffe9BRForwardIdEEviiPKT_S3_PS1_'...
GPGPU-Sim PTX: Finding immediate postdominators for '_ZN5caffe9BRForwardIdEEviiPKT_S3_PS1_'...
GPGPU-Sim PTX: pre-decoding instructions for '_ZN5caffe9BRForwardIdEEviiPKT_S3_PS1_'...
opcode: 34 space1: 4 space2: 4
GPGPU-Sim PTX: reconvergence points for _ZN5caffe9BRForwardIdEEviiPKT_S3_PS1_...
GPGPU-Sim PTX:  1 (potential) branch divergence @  PC=0x310 (_1.ptx:182) @%p1 bra BB2_3;
GPGPU-Sim PTX:    immediate post dominator      @  PC=0x3c0 (_1.ptx:209) ret;
GPGPU-Sim PTX:  2 (potential) branch divergence @  PC=0x3b8 (_1.ptx:206) @%p2 bra BB2_2;
GPGPU-Sim PTX:    immediate post dominator      @  PC=0x3c0 (_1.ptx:209) ret;
GPGPU-Sim PTX: ... end of reconvergence points for _ZN5caffe9BRForwardIdEEviiPKT_S3_PS1_
opcode: 34 space1: 4 space2: 4
opcode: 34 space1: 4 space2: 4
opcode: 34 space1: 4 space2: 4
opcode: 34 space1: 4 space2: 4
opcode: 44 space1: 0 space2: 0
opcode: 44 space1: 0 space2: 0
opcode: 44 space1: 0 space2: 0
opcode: 38 space1: 0 space2: 0
opcode: 66 space1: 0 space2: 0
opcode: 18 space1: 0 space2: 0
opcode: 28 space1: 10 space2: 10
opcode: 28 space1: 10 space2: 10
opcode: 28 space1: 10 space2: 10
opcode: 44 space1: 0 space2: 0
opcode: 46 space1: 0 space2: 0
opcode: 29 space1: 0 space2: 0
opcode: 46 space1: 0 space2: 0
opcode: 8 space1: 0 space2: 0
opcode: 34 space1: 10 space2: 10
opcode: 27 space1: 0 space2: 0
opcode: 60 space1: 0 space2: 0
opcode: 38 space1: 0 space2: 0
opcode: 46 space1: 0 space2: 0
opcode: 8 space1: 0 space2: 0
opcode: 34 space1: 10 space2: 10
opcode: 46 space1: 0 space2: 0
opcode: 8 space1: 0 space2: 0
opcode: 75 space1: 10 space2: 10
opcode: 8 space1: 0 space2: 0
opcode: 66 space1: 0 space2: 0
opcode: 18 space1: 0 space2: 0
opcode: 61 space1: 0 space2: 0
GPGPU-Sim PTX: ... done pre-decoding instructions for '_ZN5caffe9BRForwardIdEEviiPKT_S3_PS1_'.
GPGPU-Sim PTX: instruction assembly for function '_ZN5caffe10BRBackwardIdEEviiPKT_S3_S3_S3_PS1_'...   done.
GPGPU-Sim PTX: finding reconvergence points for '_ZN5caffe10BRBackwardIdEEviiPKT_S3_S3_S3_PS1_'...
GPGPU-Sim PTX: Finding dominators for '_ZN5caffe10BRBackwardIdEEviiPKT_S3_S3_S3_PS1_'...
GPGPU-Sim PTX: Finding immediate dominators for '_ZN5caffe10BRBackwardIdEEviiPKT_S3_S3_S3_PS1_'...
GPGPU-Sim PTX: Finding postdominators for '_ZN5caffe10BRBackwardIdEEviiPKT_S3_S3_S3_PS1_'...
GPGPU-Sim PTX: Finding immediate postdominators for '_ZN5caffe10BRBackwardIdEEviiPKT_S3_S3_S3_PS1_'...
GPGPU-Sim PTX: pre-decoding instructions for '_ZN5caffe10BRBackwardIdEEviiPKT_S3_S3_S3_PS1_'...
opcode: 34 space1: 4 space2: 4
GPGPU-Sim PTX: reconvergence points for _ZN5caffe10BRBackwardIdEEviiPKT_S3_S3_S3_PS1_...
GPGPU-Sim PTX:  1 (potential) branch divergence @  PC=0x428 (_1.ptx:241) @%p1 bra BB3_6;
GPGPU-Sim PTX:    immediate post dominator      @  PC=0x578 (_1.ptx:293) ret;
GPGPU-Sim PTX:  2 (potential) branch divergence @  PC=0x4d0 (_1.ptx:265) @%p2 bra BB3_5;
GPGPU-Sim PTX:    immediate post dominator      @  PC=0x560 (_1.ptx:288) add.s32 %r20, %r3, %r20;
GPGPU-Sim PTX:  3 (potential) branch divergence @  PC=0x558 (_1.ptx:285) @%p3 bra BB3_4;
GPGPU-Sim PTX:    immediate post dominator      @  PC=0x560 (_1.ptx:288) add.s32 %r20, %r3, %r20;
GPGPU-Sim PTX:  4 (potential) branch divergence @  PC=0x570 (_1.ptx:290) @%p4 bra BB3_2;
GPGPU-Sim PTX:    immediate post dominator      @  PC=0x578 (_1.ptx:293) ret;
GPGPU-Sim PTX: ... end of reconvergence points for _ZN5caffe10BRBackwardIdEEviiPKT_S3_S3_S3_PS1_
opcode: 34 space1: 4 space2: 4
opcode: 34 space1: 4 space2: 4
opcode: 34 space1: 4 space2: 4
opcode: 34 space1: 4 space2: 4
opcode: 34 space1: 4 space2: 4
opcode: 34 space1: 4 space2: 4
opcode: 44 space1: 0 space2: 0
opcode: 44 space1: 0 space2: 0
opcode: 44 space1: 0 space2: 0
opcode: 38 space1: 0 space2: 0
opcode: 66 space1: 0 space2: 0
opcode: 18 space1: 0 space2: 0
opcode: 28 space1: 10 space2: 10
opcode: 28 space1: 10 space2: 10
opcode: 28 space1: 10 space2: 10
opcode: 28 space1: 10 space2: 10
opcode: 28 space1: 10 space2: 10
opcode: 44 space1: 0 space2: 0
opcode: 46 space1: 0 space2: 0
opcode: 46 space1: 0 space2: 0
opcode: 8 space1: 0 space2: 0
opcode: 44 space1: 0 space2: 0
opcode: 75 space1: 10 space2: 10
opcode: 29 space1: 0 space2: 0
opcode: 46 space1: 0 space2: 0
opcode: 8 space1: 0 space2: 0
opcode: 34 space1: 10 space2: 10
opcode: 27 space1: 0 space2: 0
opcode: 8 space1: 0 space2: 0
opcode: 34 space1: 10 space2: 10
opcode: 27 space1: 0 space2: 0
opcode: 66 space1: 0 space2: 0
opcode: 18 space1: 0 space2: 0
opcode: 8 space1: 0 space2: 0
opcode: 60 space1: 0 space2: 0
opcode: 46 space1: 0 space2: 0
opcode: 8 space1: 0 space2: 0
opcode: 44 space1: 0 space2: 0
opcode: 34 space1: 10 space2: 10
opcode: 27 space1: 0 space2: 0
opcode: 38 space1: 0 space2: 0
opcode: 46 space1: 0 space2: 0
opcode: 8 space1: 0 space2: 0
opcode: 34 space1: 10 space2: 10
opcode: 8 space1: 0 space2: 0
opcode: 75 space1: 10 space2: 10
opcode: 8 space1: 0 space2: 0
opcode: 8 space1: 0 space2: 0
opcode: 66 space1: 0 space2: 0
opcode: 18 space1: 0 space2: 0
opcode: 8 space1: 0 space2: 0
opcode: 66 space1: 0 space2: 0
opcode: 18 space1: 0 space2: 0
opcode: 61 space1: 0 space2: 0
GPGPU-Sim PTX: ... done pre-decoding instructions for '_ZN5caffe10BRBackwardIdEEviiPKT_S3_S3_S3_PS1_'.
GPGPU-Sim PTX: instruction assembly for function '_ZN5caffe19crop_kernel_forwardIfEEviiPKiS2_S2_PKT_PS3_'...   done.
GPGPU-Sim PTX: finding reconvergence points for '_ZN5caffe19crop_kernel_forwardIfEEviiPKiS2_S2_PKT_PS3_'...
GPGPU-Sim PTX: Finding dominators for '_ZN5caffe19crop_kernel_forwardIfEEviiPKiS2_S2_PKT_PS3_'...
GPGPU-Sim PTX: Finding immediate dominators for '_ZN5caffe19crop_kernel_forwardIfEEviiPKiS2_S2_PKT_PS3_'...
GPGPU-Sim PTX: Finding postdominators for '_ZN5caffe19crop_kernel_forwardIfEEviiPKiS2_S2_PKT_PS3_'...
GPGPU-Sim PTX: Finding immediate postdominators for '_ZN5caffe19crop_kernel_forwardIfEEviiPKiS2_S2_PKT_PS3_'...
GPGPU-Sim PTX: pre-decoding instructions for '_ZN5caffe19crop_kernel_forwardIfEEviiPKiS2_S2_PKT_PS3_'...
opcode: 34 space1: 4 space2: 4
GPGPU-Sim PTX: reconvergence points for _ZN5caffe19crop_kernel_forwardIfEEviiPKiS2_S2_PKT_PS3_...
GPGPU-Sim PTX:  1 (potential) branch divergence @  PC=0x5e0 (_1.ptx:335) @%p1 bra BB0_6;
GPGPU-Sim PTX:    immediate post dominator      @  PC=0x778 (_1.ptx:396) ret;
GPGPU-Sim PTX:  2 (potential) branch divergence @  PC=0x670 (_1.ptx:356) @%p2 bra BB0_5;
GPGPU-Sim PTX:    immediate post dominator      @  PC=0x730 (_1.ptx:385) shl.b64 %rd20, %rd27, 2;
GPGPU-Sim PTX:  3 (potential) branch divergence @  PC=0x720 (_1.ptx:380) @%p3 bra BB0_3;
GPGPU-Sim PTX:    immediate post dominator      @  PC=0x728 (_1.ptx:382) cvt.s64.s32%rd27, %r26;
GPGPU-Sim PTX:  4 (potential) branch divergence @  PC=0x770 (_1.ptx:393) @%p4 bra BB0_2;
GPGPU-Sim PTX:    immediate post dominator      @  PC=0x778 (_1.ptx:396) ret;
GPGPU-Sim PTX: ... end of reconvergence points for _ZN5caffe19crop_kernel_forwardIfEEviiPKiS2_S2_PKT_PS3_
opcode: 34 space1: 4 space2: 4
opcode: 34 space1: 4 space2: 4
opcode: 34 space1: 4 space2: 4
opcode: 34 space1: 4 space2: 4
opcode: 34 space1: 4 space2: 4
opcode: 34 space1: 4 space2: 4
opcode: 44 space1: 0 space2: 0
opcode: 44 space1: 0 space2: 0
opcode: 44 space1: 0 space2: 0
opcode: 38 space1: 0 space2: 0
opcode: 66 space1: 0 space2: 0
opcode: 18 space1: 0 space2: 0
opcode: 28 space1: 10 space2: 10
opcode: 28 space1: 10 space2: 10
opcode: 28 space1: 10 space2: 10
opcode: 28 space1: 10 space2: 10
opcode: 28 space1: 10 space2: 10
opcode: 44 space1: 0 space2: 0
opcode: 46 space1: 0 space2: 0
opcode: 44 space1: 0 space2: 0
opcode: 44 space1: 0 space2: 0
opcode: 44 space1: 0 space2: 0
opcode: 44 space1: 0 space2: 0
opcode: 44 space1: 0 space2: 0
opcode: 66 space1: 0 space2: 0
opcode: 44 space1: 0 space2: 0
opcode: 44 space1: 0 space2: 0
opcode: 44 space1: 0 space2: 0
opcode: 44 space1: 0 space2: 0
opcode: 18 space1: 0 space2: 0
opcode: 44 space1: 0 space2: 0
opcode: 44 space1: 0 space2: 0
opcode: 44 space1: 0 space2: 0
opcode: 44 space1: 0 space2: 0
opcode: 34 space1: 10 space2: 10
opcode: 29 space1: 0 space2: 0
opcode: 46 space1: 0 space2: 0
opcode: 76 space1: 0 space2: 0
opcode: 34 space1: 10 space2: 10
opcode: 8 space1: 0 space2: 0
opcode: 34 space1: 10 space2: 10
opcode: 38 space1: 0 space2: 0
opcode: 8 space1: 0 space2: 0
opcode: 8 space1: 0 space2: 0
opcode: 8 space1: 0 space2: 0
opcode: 8 space1: 0 space2: 0
opcode: 66 space1: 0 space2: 0
opcode: 44 space1: 0 space2: 0
opcode: 44 space1: 0 space2: 0
opcode: 44 space1: 0 space2: 0
opcode: 44 space1: 0 space2: 0
opcode: 18 space1: 0 space2: 0
opcode: 27 space1: 0 space2: 0
opcode: 69 space1: 0 space2: 0
opcode: 8 space1: 0 space2: 0
opcode: 34 space1: 10 space2: 10
opcode: 46 space1: 0 space2: 0
opcode: 8 space1: 0 space2: 0
opcode: 75 space1: 10 space2: 10
opcode: 8 space1: 0 space2: 0
opcode: 66 space1: 0 space2: 0
opcode: 18 space1: 0 space2: 0
opcode: 61 space1: 0 space2: 0
GPGPU-Sim PTX: ... done pre-decoding instructions for '_ZN5caffe19crop_kernel_forwardIfEEviiPKiS2_S2_PKT_PS3_'.
GPGPU-Sim PTX: instruction assembly for function '_ZN5caffe20crop_kernel_backwardIfEEviiPKiS2_S2_PT_PKS3_'...   done.
GPGPU-Sim PTX: finding reconvergence points for '_ZN5caffe20crop_kernel_backwardIfEEviiPKiS2_S2_PT_PKS3_'...
GPGPU-Sim PTX: Finding dominators for '_ZN5caffe20crop_kernel_backwardIfEEviiPKiS2_S2_PT_PKS3_'...
GPGPU-Sim PTX: Finding immediate dominators for '_ZN5caffe20crop_kernel_backwardIfEEviiPKiS2_S2_PT_PKS3_'...
GPGPU-Sim PTX: Finding postdominators for '_ZN5caffe20crop_kernel_backwardIfEEviiPKiS2_S2_PT_PKS3_'...
GPGPU-Sim PTX: Finding immediate postdominators for '_ZN5caffe20crop_kernel_backwardIfEEviiPKiS2_S2_PT_PKS3_'...
GPGPU-Sim PTX: pre-decoding instructions for '_ZN5caffe20crop_kernel_backwardIfEEviiPKiS2_S2_PT_PKS3_'...
opcode: 34 space1: 4 space2: 4
GPGPU-Sim PTX: reconvergence points for _ZN5caffe20crop_kernel_backwardIfEEviiPKiS2_S2_PT_PKS3_...
GPGPU-Sim PTX:  1 (potential) branch divergence @  PC=0x7e0 (_1.ptx:428) @%p1 bra BB1_6;
GPGPU-Sim PTX:    immediate post dominator      @  PC=0x978 (_1.ptx:489) ret;
GPGPU-Sim PTX:  2 (potential) branch divergence @  PC=0x870 (_1.ptx:449) @%p2 bra BB1_5;
GPGPU-Sim PTX:    immediate post dominator      @  PC=0x930 (_1.ptx:478) mul.wide.s32 %rd20, %r4, 4;
GPGPU-Sim PTX:  3 (potential) branch divergence @  PC=0x920 (_1.ptx:473) @%p3 bra BB1_3;
GPGPU-Sim PTX:    immediate post dominator      @  PC=0x928 (_1.ptx:475) cvt.s64.s32%rd27, %r26;
GPGPU-Sim PTX:  4 (potential) branch divergence @  PC=0x970 (_1.ptx:486) @%p4 bra BB1_2;
GPGPU-Sim PTX:    immediate post dominator      @  PC=0x978 (_1.ptx:489) ret;
GPGPU-Sim PTX: ... end of reconvergence points for _ZN5caffe20crop_kernel_backwardIfEEviiPKiS2_S2_PT_PKS3_
opcode: 34 space1: 4 space2: 4
opcode: 34 space1: 4 space2: 4
opcode: 34 space1: 4 space2: 4
opcode: 34 space1: 4 space2: 4
opcode: 34 space1: 4 space2: 4
opcode: 34 space1: 4 space2: 4
opcode: 44 space1: 0 space2: 0
opcode: 44 space1: 0 space2: 0
opcode: 44 space1: 0 space2: 0
opcode: 38 space1: 0 space2: 0
opcode: 66 space1: 0 space2: 0
opcode: 18 space1: 0 space2: 0
opcode: 28 space1: 10 space2: 10
opcode: 28 space1: 10 space2: 10
opcode: 28 space1: 10 space2: 10
opcode: 28 space1: 10 space2: 10
opcode: 28 space1: 10 space2: 10
opcode: 44 space1: 0 space2: 0
opcode: 46 space1: 0 space2: 0
opcode: 44 space1: 0 space2: 0
opcode: 44 space1: 0 space2: 0
opcode: 44 space1: 0 space2: 0
opcode: 44 space1: 0 space2: 0
opcode: 44 space1: 0 space2: 0
opcode: 66 space1: 0 space2: 0
opcode: 44 space1: 0 space2: 0
opcode: 44 space1: 0 space2: 0
opcode: 44 space1: 0 space2: 0
opcode: 44 space1: 0 space2: 0
opcode: 18 space1: 0 space2: 0
opcode: 44 space1: 0 space2: 0
opcode: 44 space1: 0 space2: 0
opcode: 44 space1: 0 space2: 0
opcode: 44 space1: 0 space2: 0
opcode: 34 space1: 10 space2: 10
opcode: 29 space1: 0 space2: 0
opcode: 46 space1: 0 space2: 0
opcode: 76 space1: 0 space2: 0
opcode: 34 space1: 10 space2: 10
opcode: 8 space1: 0 space2: 0
opcode: 34 space1: 10 space2: 10
opcode: 38 space1: 0 space2: 0
opcode: 8 space1: 0 space2: 0
opcode: 8 space1: 0 space2: 0
opcode: 8 space1: 0 space2: 0
opcode: 8 space1: 0 space2: 0
opcode: 66 space1: 0 space2: 0
opcode: 44 space1: 0 space2: 0
opcode: 44 space1: 0 space2: 0
opcode: 44 space1: 0 space2: 0
opcode: 44 space1: 0 space2: 0
opcode: 18 space1: 0 space2: 0
opcode: 27 space1: 0 space2: 0
opcode: 46 space1: 0 space2: 0
opcode: 8 space1: 0 space2: 0
opcode: 34 space1: 10 space2: 10
opcode: 69 space1: 0 space2: 0
opcode: 8 space1: 0 space2: 0
opcode: 75 space1: 10 space2: 10
opcode: 8 space1: 0 space2: 0
opcode: 66 space1: 0 space2: 0
opcode: 18 space1: 0 space2: 0
opcode: 61 space1: 0 space2: 0
GPGPU-Sim PTX: ... done pre-decoding instructions for '_ZN5caffe20crop_kernel_backwardIfEEviiPKiS2_S2_PT_PKS3_'.
GPGPU-Sim PTX: instruction assembly for function '_ZN5caffe19crop_kernel_forwardIdEEviiPKiS2_S2_PKT_PS3_'...   done.
GPGPU-Sim PTX: finding reconvergence points for '_ZN5caffe19crop_kernel_forwardIdEEviiPKiS2_S2_PKT_PS3_'...
GPGPU-Sim PTX: Finding dominators for '_ZN5caffe19crop_kernel_forwardIdEEviiPKiS2_S2_PKT_PS3_'...
GPGPU-Sim PTX: Finding immediate dominators for '_ZN5caffe19crop_kernel_forwardIdEEviiPKiS2_S2_PKT_PS3_'...
GPGPU-Sim PTX: Finding postdominators for '_ZN5caffe19crop_kernel_forwardIdEEviiPKiS2_S2_PKT_PS3_'...
GPGPU-Sim PTX: Finding immediate postdominators for '_ZN5caffe19crop_kernel_forwardIdEEviiPKiS2_S2_PKT_PS3_'...
GPGPU-Sim PTX: pre-decoding instructions for '_ZN5caffe19crop_kernel_forwardIdEEviiPKiS2_S2_PKT_PS3_'...
opcode: 34 space1: 4 space2: 4
GPGPU-Sim PTX: reconvergence points for _ZN5caffe19crop_kernel_forwardIdEEviiPKiS2_S2_PKT_PS3_...
GPGPU-Sim PTX:  1 (potential) branch divergence @  PC=0x9e0 (_1.ptx:521) @%p1 bra BB2_6;
GPGPU-Sim PTX:    immediate post dominator      @  PC=0xb78 (_1.ptx:582) ret;
GPGPU-Sim PTX:  2 (potential) branch divergence @  PC=0xa70 (_1.ptx:542) @%p2 bra BB2_5;
GPGPU-Sim PTX:    immediate post dominator      @  PC=0xb30 (_1.ptx:571) shl.b64 %rd20, %rd27, 3;
GPGPU-Sim PTX:  3 (potential) branch divergence @  PC=0xb20 (_1.ptx:566) @%p3 bra BB2_3;
GPGPU-Sim PTX:    immediate post dominator      @  PC=0xb28 (_1.ptx:568) cvt.s64.s32%rd27, %r26;
GPGPU-Sim PTX:  4 (potential) branch divergence @  PC=0xb70 (_1.ptx:579) @%p4 bra BB2_2;
GPGPU-Sim PTX:    immediate post dominator      @  PC=0xb78 (_1.ptx:582) ret;
GPGPU-Sim PTX: ... end of reconvergence points for _ZN5caffe19crop_kernel_forwardIdEEviiPKiS2_S2_PKT_PS3_
opcode: 34 space1: 4 space2: 4
opcode: 34 space1: 4 space2: 4
opcode: 34 space1: 4 space2: 4
opcode: 34 space1: 4 space2: 4
opcode: 34 space1: 4 space2: 4
opcode: 34 space1: 4 space2: 4
opcode: 44 space1: 0 space2: 0
opcode: 44 space1: 0 space2: 0
opcode: 44 space1: 0 space2: 0
opcode: 38 space1: 0 space2: 0
opcode: 66 space1: 0 space2: 0
opcode: 18 space1: 0 space2: 0
[...]
GPGPU-Sim PTX: __cudaRegisterFunction _ZN5caffe20im2col_nd_gpu_kernelIdLi10EEEviPKT_PKiS5_S5_S5_S5_S5_PS1_ : hostFun 0x0x7fa41a266e30, fat_cubin_handle = 61
GPGPU-Sim PTX: __cudaRegisterFunction _ZN5caffe20im2col_nd_gpu_kernelIdLi9EEEviPKT_PKiS5_S5_S5_S5_S5_PS1_ : hostFun 0x0x7fa41a266e20, fat_cubin_handle = 61
GPGPU-Sim PTX: __cudaRegisterFunction _ZN5caffe20im2col_nd_gpu_kernelIdLi8EEEviPKT_PKiS5_S5_S5_S5_S5_PS1_ : hostFun 0x0x7fa41a266e10, fat_cubin_handle = 61
GPGPU-Sim PTX: __cudaRegisterFunction _ZN5caffe20im2col_nd_gpu_kernelIdLi7EEEviPKT_PKiS5_S5_S5_S5_S5_PS1_ : hostFun 0x0x7fa41a266e00, fat_cubin_handle = 61
GPGPU-Sim PTX: __cudaRegisterFunction _ZN5caffe20im2col_nd_gpu_kernelIdLi6EEEviPKT_PKiS5_S5_S5_S5_S5_PS1_ : hostFun 0x0x7fa41a266df0, fat_cubin_handle = 61
GPGPU-Sim PTX: __cudaRegisterFunction _ZN5caffe20im2col_nd_gpu_kernelIdLi5EEEviPKT_PKiS5_S5_S5_S5_S5_PS1_ : hostFun 0x0x7fa41a266de0, fat_cubin_handle = 61
GPGPU-Sim PTX: __cudaRegisterFunction _ZN5caffe20im2col_nd_gpu_kernelIdLi4EEEviPKT_PKiS5_S5_S5_S5_S5_PS1_ : hostFun 0x0x7fa41a266dd0, fat_cubin_handle = 61
GPGPU-Sim PTX: __cudaRegisterFunction _ZN5caffe20im2col_nd_gpu_kernelIdLi3EEEviPKT_PKiS5_S5_S5_S5_S5_PS1_ : hostFun 0x0x7fa41a266dc0, fat_cubin_handle = 61
GPGPU-Sim PTX: __cudaRegisterFunction _ZN5caffe20im2col_nd_gpu_kernelIdLi2EEEviPKT_PKiS5_S5_S5_S5_S5_PS1_ : hostFun 0x0x7fa41a266db0, fat_cubin_handle = 61
GPGPU-Sim PTX: __cudaRegisterFunction _ZN5caffe20im2col_nd_gpu_kernelIdLi1EEEviPKT_PKiS5_S5_S5_S5_S5_PS1_ : hostFun 0x0x7fa41a266da0, fat_cubin_handle = 61
GPGPU-Sim PTX: __cudaRegisterFunction _ZN5caffe20im2col_nd_gpu_kernelIfLi10EEEviPKT_PKiS5_S5_S5_S5_S5_PS1_ : hostFun 0x0x7fa41a266d90, fat_cubin_handle = 61
GPGPU-Sim PTX: __cudaRegisterFunction _ZN5caffe20im2col_nd_gpu_kernelIfLi9EEEviPKT_PKiS5_S5_S5_S5_S5_PS1_ : hostFun 0x0x7fa41a266d80, fat_cubin_handle = 61
GPGPU-Sim PTX: __cudaRegisterFunction _ZN5caffe20im2col_nd_gpu_kernelIfLi8EEEviPKT_PKiS5_S5_S5_S5_S5_PS1_ : hostFun 0x0x7fa41a266d70, fat_cubin_handle = 61
GPGPU-Sim PTX: __cudaRegisterFunction _ZN5caffe20im2col_nd_gpu_kernelIfLi7EEEviPKT_PKiS5_S5_S5_S5_S5_PS1_ : hostFun 0x0x7fa41a266d60, fat_cubin_handle = 61
GPGPU-Sim PTX: __cudaRegisterFunction _ZN5caffe20im2col_nd_gpu_kernelIfLi6EEEviPKT_PKiS5_S5_S5_S5_S5_PS1_ : hostFun 0x0x7fa41a266d50, fat_cubin_handle = 61
GPGPU-Sim PTX: __cudaRegisterFunction _ZN5caffe20im2col_nd_gpu_kernelIfLi5EEEviPKT_PKiS5_S5_S5_S5_S5_PS1_ : hostFun 0x0x7fa41a266d40, fat_cubin_handle = 61
GPGPU-Sim PTX: __cudaRegisterFunction _ZN5caffe20im2col_nd_gpu_kernelIfLi4EEEviPKT_PKiS5_S5_S5_S5_S5_PS1_ : hostFun 0x0x7fa41a266d30, fat_cubin_handle = 61
GPGPU-Sim PTX: __cudaRegisterFunction _ZN5caffe20im2col_nd_gpu_kernelIfLi3EEEviPKT_PKiS5_S5_S5_S5_S5_PS1_ : hostFun 0x0x7fa41a266d20, fat_cubin_handle = 61
GPGPU-Sim PTX: __cudaRegisterFunction _ZN5caffe20im2col_nd_gpu_kernelIfLi2EEEviPKT_PKiS5_S5_S5_S5_S5_PS1_ : hostFun 0x0x7fa41a266d10, fat_cubin_handle = 61
GPGPU-Sim PTX: __cudaRegisterFunction _ZN5caffe20im2col_nd_gpu_kernelIfLi1EEEviPKT_PKiS5_S5_S5_S5_S5_PS1_ : hostFun 0x0x7fa41a266d00, fat_cubin_handle = 61
GPGPU-Sim PTX: __cudaRegisterFunction _ZN5caffe17im2col_gpu_kernelIdEEviPKT_iiiiiiiiiiiiPS1_ : hostFun 0x0x7fa41a266cf0, fat_cubin_handle = 61
GPGPU-Sim PTX: __cudaRegisterFunction _ZN5caffe17im2col_gpu_kernelIfEEviPKT_iiiiiiiiiiiiPS1_ : hostFun 0x0x7fa41a266ce0, fat_cubin_handle = 61

GPGPU-Sim PTX: cudaLaunch for 0x0x7fa41a238fa0 (mode=performance simulation) on stream 0
GPGPU-Sim PTX: pushing kernel '_ZN5caffe11ReLUForwardIfEEviPKT_PS1_S1_' to stream 0, gridDim= (294,1,1) blockDim = (512,1,1) 
GPGPU-Sim uArch: Shader 1 bind to kernel 1 '_ZN5caffe11ReLUForwardIfEEviPKT_PS1_S1_'
GPGPU-Sim uArch: CTA/core = 3, limited by: threads
GPGPU-Sim uArch: core:  1, cta: 0, start_tid:   0, end_tid: 512, initialized @(1,0)
GPGPU-Sim uArch: Shader 2 bind to kernel 1 '_ZN5caffe11ReLUForwardIfEEviPKT_PS1_S1_'
GPGPU-Sim uArch: core:  2, cta: 0, start_tid:   0, end_tid: 512, initialized @(1,0)
GPGPU-Sim uArch: Shader 3 bind to kernel 1 '_ZN5caffe11ReLUForwardIfEEviPKT_PS1_S1_'
GPGPU-Sim uArch: core:  3, cta: 0, start_tid:   0, end_tid: 512, initialized @(1,0)
GPGPU-Sim uArch: Shader 4 bind to kernel 1 '_ZN5caffe11ReLUForwardIfEEviPKT_PS1_S1_'
GPGPU-Sim uArch: core:  4, cta: 0, start_tid:   0, end_tid: 512, initialized @(1,0)
GPGPU-Sim uArch: Shader 0 bind to kernel 1 '_ZN5caffe11ReLUForwardIfEEviPKT_PS1_S1_'
GPGPU-Sim uArch: core:  0, cta: 0, start_tid:   0, end_tid: 512, initialized @(1,0)
GPGPU-Sim uArch: core:  1, cta: 1, start_tid: 540, end_tid:1052, initialized @(2,0)
GPGPU-Sim uArch: core:  2, cta: 1, start_tid: 540, end_tid:1052, initialized @(2,0)
GPGPU-Sim uArch: core:  3, cta: 1, start_tid: 540, end_tid:1052, initialized @(2,0)
GPGPU-Sim uArch: core:  4, cta: 1, start_tid: 540, end_tid:1052, initialized @(2,0)
GPGPU-Sim uArch: core:  0, cta: 1, start_tid: 540, end_tid:1052, initialized @(2,0)
GPGPU-Sim uArch: core:  1, cta: 2, start_tid:1080, end_tid:1592, initialized @(3,0)
GPGPU-Sim uArch: core:  2, cta: 2, start_tid:1080, end_tid:1592, initialized @(3,0)
GPGPU-Sim uArch: core:  3, cta: 2, start_tid:1080, end_tid:1592, initialized @(3,0)
GPGPU-Sim uArch: core:  4, cta: 2, start_tid:1080, end_tid:1592, initialized @(3,0)
GPGPU-Sim uArch: core:  0, cta: 2, start_tid:1080, end_tid:1592, initialized @(3,0)
m_warp[mf->get_wid()].get_pc() = 19800, mf->get_addr()-PROGRAM_MEM_START = 19800
m_warp[mf->get_wid()].get_pc() = 19800, mf->get_addr()-PROGRAM_MEM_START = 19800
m_warp[mf->get_wid()].get_pc() = 19800, mf->get_addr()-PROGRAM_MEM_START = 19800
m_warp[mf->get_wid()].get_pc() = 19800, mf->get_addr()-PROGRAM_MEM_START = 19800
m_warp[mf->get_wid()].get_pc() = 19800, mf->get_addr()-PROGRAM_MEM_START = 19800
m_warp[mf->get_wid()].get_pc() = 19800, mf->get_addr()-PROGRAM_MEM_START = 19800
m_warp[mf->get_wid()].get_pc() = 19800, mf->get_addr()-PROGRAM_MEM_START = 19800
m_warp[mf->get_wid()].get_pc() = 19800, mf->get_addr()-PROGRAM_MEM_START = 19800
m_warp[mf->get_wid()].get_pc() = 19800, mf->get_addr()-PROGRAM_MEM_START = 19800
m_warp[mf->get_wid()].get_pc() = 19800, mf->get_addr()-PROGRAM_MEM_START = 19800
m_warp[mf->get_wid()].get_pc() = 19800, mf->get_addr()-PROGRAM_MEM_START = 19800
m_warp[mf->get_wid()].get_pc() = 19800, mf->get_addr()-PROGRAM_MEM_START = 19800
m_warp[mf->get_wid()].get_pc() = 19800, mf->get_addr()-PROGRAM_MEM_START = 19800
m_warp[mf->get_wid()].get_pc() = 19800, mf->get_addr()-PROGRAM_MEM_START = 19800
m_warp[mf->get_wid()].get_pc() = 19800, mf->get_addr()-PROGRAM_MEM_START = 19800
m_warp[mf->get_wid()].get_pc() = 19800, mf->get_addr()-PROGRAM_MEM_START = 19800
m_warp[mf->get_wid()].get_pc() = 19800, mf->get_addr()-PROGRAM_MEM_START = 19800
m_warp[mf->get_wid()].get_pc() = 19800, mf->get_addr()-PROGRAM_MEM_START = 19800
m_warp[mf->get_wid()].get_pc() = 19800, mf->get_addr()-PROGRAM_MEM_START = 19800
m_warp[mf->get_wid()].get_pc() = 19800, mf->get_addr()-PROGRAM_MEM_START = 19800
m_warp[mf->get_wid()].get_pc() = 19800, mf->get_addr()-PROGRAM_MEM_START = 19800
m_warp[mf->get_wid()].get_pc() = 19800, mf->get_addr()-PROGRAM_MEM_START = 19800
m_warp[mf->get_wid()].get_pc() = 19800, mf->get_addr()-PROGRAM_MEM_START = 19800
m_warp[mf->get_wid()].get_pc() = 19800, mf->get_addr()-PROGRAM_MEM_START = 19800
m_warp[mf->get_wid()].get_pc() = 19800, mf->get_addr()-PROGRAM_MEM_START = 19800
m_warp[mf->get_wid()].get_pc() = 19800, mf->get_addr()-PROGRAM_MEM_START = 19800
m_warp[mf->get_wid()].get_pc() = 19800, mf->get_addr()-PROGRAM_MEM_START = 19800
m_warp[mf->get_wid()].get_pc() = 19800, mf->get_addr()-PROGRAM_MEM_START = 19800
m_warp[mf->get_wid()].get_pc() = 19800, mf->get_addr()-PROGRAM_MEM_START = 19800
m_warp[mf->get_wid()].get_pc() = 19800, mf->get_addr()-PROGRAM_MEM_START = 19800
m_warp[mf->get_wid()].get_pc() = 19800, mf->get_addr()-PROGRAM_MEM_START = 19800
m_warp[mf->get_wid()].get_pc() = 19800, mf->get_addr()-PROGRAM_MEM_START = 19800
m_warp[mf->get_wid()].get_pc() = 19800, mf->get_addr()-PROGRAM_MEM_START = 19800
m_warp[mf->get_wid()].get_pc() = 19800, mf->get_addr()-PROGRAM_MEM_START = 19800
m_warp[mf->get_wid()].get_pc() = 19800, mf->get_addr()-PROGRAM_MEM_START = 19800
m_warp[mf->get_wid()].get_pc() = 19800, mf->get_addr()-PROGRAM_MEM_START = 19800
m_warp[mf->get_wid()].get_pc() = 19800, mf->get_addr()-PROGRAM_MEM_START = 19800
m_warp[mf->get_wid()].get_pc() = 19800, mf->get_addr()-PROGRAM_MEM_START = 19800
m_warp[mf->get_wid()].get_pc() = 19800, mf->get_addr()-PROGRAM_MEM_START = 19800
m_warp[mf->get_wid()].get_pc() = 19800, mf->get_addr()-PROGRAM_MEM_START = 19800
m_warp[mf->get_wid()].get_pc() = 19800, mf->get_addr()-PROGRAM_MEM_START = 19800
m_warp[mf->get_wid()].get_pc() = 19800, mf->get_addr()-PROGRAM_MEM_START = 19800
m_warp[mf->get_wid()].get_pc() = 19800, mf->get_addr()-PROGRAM_MEM_START = 19800
m_warp[mf->get_wid()].get_pc() = 19800, mf->get_addr()-PROGRAM_MEM_START = 19800
m_warp[mf->get_wid()].get_pc() = 19800, mf->get_addr()-PROGRAM_MEM_START = 19800
m_warp[mf->get_wid()].get_pc() = 19800, mf->get_addr()-PROGRAM_MEM_START = 19800
m_warp[mf->get_wid()].get_pc() = 19800, mf->get_addr()-PROGRAM_MEM_START = 19800
m_warp[mf->get_wid()].get_pc() = 19800, mf->get_addr()-PROGRAM_MEM_START = 19800
m_warp[mf->get_wid()].get_pc() = 19800, mf->get_addr()-PROGRAM_MEM_START = 19800
m_warp[mf->get_wid()].get_pc() = 19800, mf->get_addr()-PROGRAM_MEM_START = 19800
m_warp[mf->get_wid()].get_pc() = 19800, mf->get_addr()-PROGRAM_MEM_START = 19800
m_warp[mf->get_wid()].get_pc() = 19800, mf->get_addr()-PROGRAM_MEM_START = 19800
m_warp[mf->get_wid()].get_pc() = 19800, mf->get_addr()-PROGRAM_MEM_START = 19800
m_warp[mf->get_wid()].get_pc() = 19800, mf->get_addr()-PROGRAM_MEM_START = 19800
m_warp[mf->get_wid()].get_pc() = 19800, mf->get_addr()-PROGRAM_MEM_START = 19800
m_warp[mf->get_wid()].get_pc() = 19800, mf->get_addr()-PROGRAM_MEM_START = 19800
m_warp[mf->get_wid()].get_pc() = 19800, mf->get_addr()-PROGRAM_MEM_START = 19800
m_warp[mf->get_wid()].get_pc() = 19800, mf->get_addr()-PROGRAM_MEM_START = 19800
m_warp[mf->get_wid()].get_pc() = 19800, mf->get_addr()-PROGRAM_MEM_START = 19800
m_warp[mf->get_wid()].get_pc() = 19800, mf->get_addr()-PROGRAM_MEM_START = 19800
m_warp[mf->get_wid()].get_pc() = 19800, mf->get_addr()-PROGRAM_MEM_START = 19800
m_warp[mf->get_wid()].get_pc() = 19800, mf->get_addr()-PROGRAM_MEM_START = 19800
m_warp[mf->get_wid()].get_pc() = 19800, mf->get_addr()-PROGRAM_MEM_START = 19800
m_warp[mf->get_wid()].get_pc() = 19800, mf->get_addr()-PROGRAM_MEM_START = 19800
m_warp[mf->get_wid()].get_pc() = 19800, mf->get_addr()-PROGRAM_MEM_START = 19800
m_warp[mf->get_wid()].get_pc() = 19800, mf->get_addr()-PROGRAM_MEM_START = 19800
m_warp[mf->get_wid()].get_pc() = 19800, mf->get_addr()-PROGRAM_MEM_START = 19800
m_warp[mf->get_wid()].get_pc() = 19800, mf->get_addr()-PROGRAM_MEM_START = 19800
m_warp[mf->get_wid()].get_pc() = 19800, mf->get_addr()-PROGRAM_MEM_START = 19800
m_warp[mf->get_wid()].get_pc() = 19800, mf->get_addr()-PROGRAM_MEM_START = 19800
m_warp[mf->get_wid()].get_pc() = 19800, mf->get_addr()-PROGRAM_MEM_START = 19800
m_warp[mf->get_wid()].get_pc() = 19800, mf->get_addr()-PROGRAM_MEM_START = 19800
m_warp[mf->get_wid()].get_pc() = 19800, mf->get_addr()-PROGRAM_MEM_START = 19800
m_warp[mf->get_wid()].get_pc() = 19800, mf->get_addr()-PROGRAM_MEM_START = 19800
m_warp[mf->get_wid()].get_pc() = 19800, mf->get_addr()-PROGRAM_MEM_START = 19800
m_warp[mf->get_wid()].get_pc() = 19800, mf->get_addr()-PROGRAM_MEM_START = 19800
m_warp[mf->get_wid()].get_pc() = 19800, mf->get_addr()-PROGRAM_MEM_START = 19800
m_warp[mf->get_wid()].get_pc() = 19800, mf->get_addr()-PROGRAM_MEM_START = 19800
m_warp[mf->get_wid()].get_pc() = 19800, mf->get_addr()-PROGRAM_MEM_START = 19800
m_warp[mf->get_wid()].get_pc() = 19800, mf->get_addr()-PROGRAM_MEM_START = 19800
GPGPU-Sim uArch: cycles simulated: 500  inst.: 288 (ipc= 0.6) sim_rate=96 (inst/sec) elapsed = 0:0:00:03 / Sat Apr 28 10:32:14 2018
m_warp[mf->get_wid()].get_pc() = 19848, mf->get_addr()-PROGRAM_MEM_START = 19848
m_warp[mf->get_wid()].get_pc() = 19848, mf->get_addr()-PROGRAM_MEM_START = 19848
m_warp[mf->get_wid()].get_pc() = 19848, mf->get_addr()-PROGRAM_MEM_START = 19848
m_warp[mf->get_wid()].get_pc() = 19848, mf->get_addr()-PROGRAM_MEM_START = 19848
m_warp[mf->get_wid()].get_pc() = 19848, mf->get_addr()-PROGRAM_MEM_START = 19848
m_warp[mf->get_wid()].get_pc() = 19848, mf->get_addr()-PROGRAM_MEM_START = 19848
m_warp[mf->get_wid()].get_pc() = 19848, mf->get_addr()-PROGRAM_MEM_START = 19848
m_warp[mf->get_wid()].get_pc() = 19848, mf->get_addr()-PROGRAM_MEM_START = 19848
m_warp[mf->get_wid()].get_pc() = 19848, mf->get_addr()-PROGRAM_MEM_START = 19848
m_warp[mf->get_wid()].get_pc() = 19848, mf->get_addr()-PROGRAM_MEM_START = 19848
m_warp[mf->get_wid()].get_pc() = 19848, mf->get_addr()-PROGRAM_MEM_START = 19848
m_warp[mf->get_wid()].get_pc() = 19848, mf->get_addr()-PROGRAM_MEM_START = 19848
m_warp[mf->get_wid()].get_pc() = 19848, mf->get_addr()-PROGRAM_MEM_START = 19848
m_warp[mf->get_wid()].get_pc() = 19848, mf->get_addr()-PROGRAM_MEM_START = 19848
m_warp[mf->get_wid()].get_pc() = 19848, mf->get_addr()-PROGRAM_MEM_START = 19848
m_warp[mf->get_wid()].get_pc() = 19848, mf->get_addr()-PROGRAM_MEM_START = 19848
m_warp[mf->get_wid()].get_pc() = 19848, mf->get_addr()-PROGRAM_MEM_START = 19848
m_warp[mf->get_wid()].get_pc() = 19848, mf->get_addr()-PROGRAM_MEM_START = 19848
m_warp[mf->get_wid()].get_pc() = 19848, mf->get_addr()-PROGRAM_MEM_START = 19848
m_warp[mf->get_wid()].get_pc() = 19848, mf->get_addr()-PROGRAM_MEM_START = 19848
m_warp[mf->get_wid()].get_pc() = 19848, mf->get_addr()-PROGRAM_MEM_START = 19848
m_warp[mf->get_wid()].get_pc() = 19848, mf->get_addr()-PROGRAM_MEM_START = 19848
m_warp[mf->get_wid()].get_pc() = 19848, mf->get_addr()-PROGRAM_MEM_START = 19848
m_warp[mf->get_wid()].get_pc() = 19848, mf->get_addr()-PROGRAM_MEM_START = 19848
m_warp[mf->get_wid()].get_pc() = 19848, mf->get_addr()-PROGRAM_MEM_START = 19848
m_warp[mf->get_wid()].get_pc() = 19848, mf->get_addr()-PROGRAM_MEM_START = 19848
m_warp[mf->get_wid()].get_pc() = 19848, mf->get_addr()-PROGRAM_MEM_START = 19848
m_warp[mf->get_wid()].get_pc() = 19848, mf->get_addr()-PROGRAM_MEM_START = 19848
m_warp[mf->get_wid()].get_pc() = 19848, mf->get_addr()-PROGRAM_MEM_START = 19848
m_warp[mf->get_wid()].get_pc() = 19848, mf->get_addr()-PROGRAM_MEM_START = 19848
m_warp[mf->get_wid()].get_pc() = 19848, mf->get_addr()-PROGRAM_MEM_START = 19848
m_warp[mf->get_wid()].get_pc() = 19848, mf->get_addr()-PROGRAM_MEM_START = 19848
m_warp[mf->get_wid()].get_pc() = 19848, mf->get_addr()-PROGRAM_MEM_START = 19848
m_warp[mf->get_wid()].get_pc() = 19848, mf->get_addr()-PROGRAM_MEM_START = 19848
m_warp[mf->get_wid()].get_pc() = 19848, mf->get_addr()-PROGRAM_MEM_START = 19848
m_warp[mf->get_wid()].get_pc() = 19848, mf->get_addr()-PROGRAM_MEM_START = 19848
m_warp[mf->get_wid()].get_pc() = 19848, mf->get_addr()-PROGRAM_MEM_START = 19848
m_warp[mf->get_wid()].get_pc() = 19848, mf->get_addr()-PROGRAM_MEM_START = 19848
m_warp[mf->get_wid()].get_pc() = 19848, mf->get_addr()-PROGRAM_MEM_START = 19848
m_warp[mf->get_wid()].get_pc() = 19848, mf->get_addr()-PROGRAM_MEM_START = 19848
m_warp[mf->get_wid()].get_pc() = 19848, mf->get_addr()-PROGRAM_MEM_START = 19848
m_warp[mf->get_wid()].get_pc() = 19848, mf->get_addr()-PROGRAM_MEM_START = 19848
m_warp[mf->get_wid()].get_pc() = 19848, mf->get_addr()-PROGRAM_MEM_START = 19848
m_warp[mf->get_wid()].get_pc() = 19848, mf->get_addr()-PROGRAM_MEM_START = 19848
m_warp[mf->get_wid()].get_pc() = 19848, mf->get_addr()-PROGRAM_MEM_START = 19848
m_warp[mf->get_wid()].get_pc() = 19848, mf->get_addr()-PROGRAM_MEM_START = 19848
m_warp[mf->get_wid()].get_pc() = 19848, mf->get_addr()-PROGRAM_MEM_START = 19848
m_warp[mf->get_wid()].get_pc() = 19848, mf->get_addr()-PROGRAM_MEM_START = 19848
m_warp[mf->get_wid()].get_pc() = 19848, mf->get_addr()-PROGRAM_MEM_START = 19848
m_warp[mf->get_wid()].get_pc() = 19848, mf->get_addr()-PROGRAM_MEM_START = 19848
m_warp[mf->get_wid()].get_pc() = 19848, mf->get_addr()-PROGRAM_MEM_START = 19848
m_warp[mf->get_wid()].get_pc() = 19848, mf->get_addr()-PROGRAM_MEM_START = 19848
m_warp[mf->get_wid()].get_pc() = 19848, mf->get_addr()-PROGRAM_MEM_START = 19848
m_warp[mf->get_wid()].get_pc() = 19848, mf->get_addr()-PROGRAM_MEM_START = 19848
m_warp[mf->get_wid()].get_pc() = 19848, mf->get_addr()-PROGRAM_MEM_START = 19848
m_warp[mf->get_wid()].get_pc() = 19848, mf->get_addr()-PROGRAM_MEM_START = 19848
m_warp[mf->get_wid()].get_pc() = 19848, mf->get_addr()-PROGRAM_MEM_START = 19848
m_warp[mf->get_wid()].get_pc() = 19848, mf->get_addr()-PROGRAM_MEM_START = 19848
m_warp[mf->get_wid()].get_pc() = 19848, mf->get_addr()-PROGRAM_MEM_START = 19848
m_warp[mf->get_wid()].get_pc() = 19848, mf->get_addr()-PROGRAM_MEM_START = 19848
m_warp[mf->get_wid()].get_pc() = 19848, mf->get_addr()-PROGRAM_MEM_START = 19848
m_warp[mf->get_wid()].get_pc() = 19848, mf->get_addr()-PROGRAM_MEM_START = 19848
m_warp[mf->get_wid()].get_pc() = 19848, mf->get_addr()-PROGRAM_MEM_START = 19848
m_warp[mf->get_wid()].get_pc() = 19848, mf->get_addr()-PROGRAM_MEM_START = 19848
m_warp[mf->get_wid()].get_pc() = 19848, mf->get_addr()-PROGRAM_MEM_START = 19848
m_warp[mf->get_wid()].get_pc() = 19848, mf->get_addr()-PROGRAM_MEM_START = 19848
m_warp[mf->get_wid()].get_pc() = 19848, mf->get_addr()-PROGRAM_MEM_START = 19848
m_warp[mf->get_wid()].get_pc() = 19848, mf->get_addr()-PROGRAM_MEM_START = 19848
m_warp[mf->get_wid()].get_pc() = 19848, mf->get_addr()-PROGRAM_MEM_START = 19848
m_warp[mf->get_wid()].get_pc() = 19848, mf->get_addr()-PROGRAM_MEM_START = 19848
m_warp[mf->get_wid()].get_pc() = 19848, mf->get_addr()-PROGRAM_MEM_START = 19848
m_warp[mf->get_wid()].get_pc() = 19848, mf->get_addr()-PROGRAM_MEM_START = 19848
m_warp[mf->get_wid()].get_pc() = 19848, mf->get_addr()-PROGRAM_MEM_START = 19848
m_warp[mf->get_wid()].get_pc() = 19848, mf->get_addr()-PROGRAM_MEM_START = 19848
m_warp[mf->get_wid()].get_pc() = 19848, mf->get_addr()-PROGRAM_MEM_START = 19848
m_warp[mf->get_wid()].get_pc() = 19848, mf->get_addr()-PROGRAM_MEM_START = 19848
m_warp[mf->get_wid()].get_pc() = 19848, mf->get_addr()-PROGRAM_MEM_START = 19848
m_warp[mf->get_wid()].get_pc() = 19848, mf->get_addr()-PROGRAM_MEM_START = 19848
m_warp[mf->get_wid()].get_pc() = 19848, mf->get_addr()-PROGRAM_MEM_START = 19848
m_warp[mf->get_wid()].get_pc() = 19848, mf->get_addr()-PROGRAM_MEM_START = 19848
GPGPU-Sim uArch: cycles simulated: 1500  inst.: 114408 (ipc=76.3) sim_rate=28602 (inst/sec) elapsed = 0:0:00:04 / Sat Apr 28 10:32:15 2018
GPGPU-Sim uArch: cycles simulated: 3000  inst.: 155376 (ipc=51.8) sim_rate=31075 (inst/sec) elapsed = 0:0:00:05 / Sat Apr 28 10:32:16 2018
m_warp[mf->get_wid()].get_pc() = 19976, mf->get_addr()-PROGRAM_MEM_START = 19976
m_warp[mf->get_wid()].get_pc() = 19976, mf->get_addr()-PROGRAM_MEM_START = 19976
m_warp[mf->get_wid()].get_pc() = 19976, mf->get_addr()-PROGRAM_MEM_START = 19976
m_warp[mf->get_wid()].get_pc() = 19976, mf->get_addr()-PROGRAM_MEM_START = 19976
m_warp[mf->get_wid()].get_pc() = 19976, mf->get_addr()-PROGRAM_MEM_START = 19976
m_warp[mf->get_wid()].get_pc() = 19976, mf->get_addr()-PROGRAM_MEM_START = 19976
m_warp[mf->get_wid()].get_pc() = 19976, mf->get_addr()-PROGRAM_MEM_START = 19976
m_warp[mf->get_wid()].get_pc() = 19976, mf->get_addr()-PROGRAM_MEM_START = 19976
m_warp[mf->get_wid()].get_pc() = 19976, mf->get_addr()-PROGRAM_MEM_START = 19976
m_warp[mf->get_wid()].get_pc() = 19976, mf->get_addr()-PROGRAM_MEM_START = 19976
m_warp[mf->get_wid()].get_pc() = 19976, mf->get_addr()-PROGRAM_MEM_START = 19976
m_warp[mf->get_wid()].get_pc() = 19976, mf->get_addr()-PROGRAM_MEM_START = 19976
m_warp[mf->get_wid()].get_pc() = 19976, mf->get_addr()-PROGRAM_MEM_START = 19976
m_warp[mf->get_wid()].get_pc() = 19968, mf->get_addr()-PROGRAM_MEM_START = 19976
